*|DSPF	1.5
*|DESIGN	Pseudo_Differential_DCell
*|DATE	"Mon Jan 7 2019"
*|VENDOR	"Mentor Graphics Corporation"
*|PROGRAM	"Calibre xACT"
*|VERSION	"v2018.1_16.11"
*|DIVIDER	|
*|DELIMITER	:
* Corner Name: 14lpp_13M_3Mx_2Cx_4Kx_2Hx_2Gx_LB_nominal_detailed_25
* Nominal Temperature: 25C
* Circuit Temperature: 25C
* 

* Integrated TICER reduction is not enabled.
* SHORT DELAY THRESHOLD: 2e-15
* Fill Mode: NF
* PEX REDUCE CC ABSOLUTE : 1
* PEX REDUCE CC RELATIVE : 0.01
* Delta transform mode : 344834


.subckt Pseudo_Differential_DCell VIN VIP VOP VON VDD VSS VDD__2 VNW VNW__2 VPW
*
* VIN VIN
* VIP VIP
* VOP VOP
* VON VON
* VDD VDD
* VSS VSS
* VNW VNW
* VPW VPW
*
*|GROUND_NET 0
*
* Net Section
*


*|NET VNW 0.0108356f
*|P (VNW B 0.0 0.052 -0.48)
*|I (D0_noxref:neg D0_noxref neg B 0.0 0.546 -0.36)
*|I (MPM1:b MPM1 b B 0.0 0.084 -0.36)
*|I (MPM1@8:b MPM1@8 b B 0.0 0.168 -0.36)
*|I (MPM1@7:b MPM1@7 b B 0.0 0.252 -0.36)
*|I (MPM1@6:b MPM1@6 b B 0.0 0.336 -0.36)
*|I (MPM1@5:b MPM1@5 b B 0.0 0.42 -0.36)
*|I (MPM1@4:b MPM1@4 b B 0.0 0.504 -0.36)
*|I (MPM1@3:b MPM1@3 b B 0.0 0.588 -0.36)
*|I (MPM1@2:b MPM1@2 b B 0.0 0.672 -0.36)
*|I (MPM2:b MPM2 b B 0.0 0.924 -0.36)
*|I (MPM2@2:b MPM2@2 b B 0.0 1.008 -0.36)
Cc_1 VNW VIN 0.000365049f
Cc_2 VNW VIN:38 0.000267926f
Cc_3 VNW VIN:39 0.000385181f
Cc_4 VNW VIN:40 0.000224597f
Cc_5 VNW VIN:41 0.000444499f
Cc_6 VNW VIN:42 0.000258009f
Cc_7 VNW VIN:43 0.000444499f
Cc_8 VNW VIN:44 0.000267557f
Cc_9 VNW VIN:45 0.000444499f
Cc_10 VNW VIN:46 0.000267557f
Cc_11 VNW VIN:47 0.000444499f
Cc_12 VNW VIN:48 0.000267557f
Cc_13 VNW VIN:49 0.000444499f
Cc_14 VNW VIN:50 0.000267557f
Cc_15 VNW VIN:51 0.000444499f
Cc_16 VNW VIN:52 0.000267557f
Cc_17 VNW VIN:53 0.000385181f
Cc_18 VNW VIN:54 0.00026202f
Cc_19 VNW VIN:55 0.000187874f
Cc_20 VNW VIN:57 0.000180161f
Cc_21 VNW VIN:59 0.000188729f
Cc_22 VNW VIN:61 0.000188729f
Cc_23 VNW VIN:63 0.000188729f
Cc_24 VNW VIN:65 0.000188729f
Cc_25 VNW VIN:67 0.000188849f
Cc_26 VNW VIN:69 0.00020713f
Cc_27 VNW VOP:119 0.00047747f
Cc_28 VNW VOP:120 0.000255227f
Cc_29 VNW VOP:121 0.000388477f
Cc_30 VNW VOP:122 0.000224652f
Cc_31 VNW VOP:123 0.000206107f
Cc_32 VNW VOP:125 0.000187721f
Cc_33 VNW VDD:1 0.000177164f
Cc_34 VNW VDD:2 0.000180951f
Cc_35 VNW VDD:3 0.000175944f
Cc_36 VNW VDD:4 0.000179113f
Cc_37 VNW VSS:1 0.000176487f
Cc_38 VNW VSS:3 0.000181026f
Cc_39 VNW VSS:5 0.00017512f
Cc_40 VNW VSS:7 0.000178441f
R1 VNW D0_noxref:neg 1e-05
R2 D0_noxref:neg MPM1:b 0.01
R3 D0_noxref:neg MPM1@8:b 0.01
R4 D0_noxref:neg MPM1@7:b 0.01
R5 D0_noxref:neg MPM1@6:b 0.01
R6 D0_noxref:neg MPM1@5:b 0.01
R7 D0_noxref:neg MPM1@4:b 0.01
R8 D0_noxref:neg MPM1@3:b 0.01
R9 D0_noxref:neg MPM1@2:b 0.01
R10 D0_noxref:neg MPM2:b 0.01
R11 D0_noxref:neg MPM2@2:b 0.01

*|NET VPW 0.196801f
*|P (VPW B 0.0 0.052 0.0)
*|I (MNM1@5:b MNM1@5 b B 0.0 0.42 -0.12)
*|I (D0_noxref:pos D0_noxref pos B 0.0 0.546 -0.36)
*|I (D1_noxref:pos D1_noxref pos B 0.0 0.546 0.36)
*|I (MNM0@5:b MNM0@5 b B 0.0 0.42 0.12)
*|I (MNM1@4:b MNM1@4 b B 0.0 0.504 -0.12)
*|I (MNM0@4:b MNM0@4 b B 0.0 0.504 0.12)
*|I (MNM1@3:b MNM1@3 b B 0.0 0.588 -0.12)
*|I (MNM0@3:b MNM0@3 b B 0.0 0.588 0.12)
*|I (MNM1@2:b MNM1@2 b B 0.0 0.672 -0.12)
*|I (MNM0@2:b MNM0@2 b B 0.0 0.672 0.12)
*|I (MNM2:b MNM2 b B 0.0 0.924 -0.12)
*|I (MNM3:b MNM3 b B 0.0 0.924 0.12)
*|I (MNM2@2:b MNM2@2 b B 0.0 1.008 -0.12)
*|I (MNM3@2:b MNM3@2 b B 0.0 1.008 0.12)
*|I (MNM1:b MNM1 b B 0.0 0.084 -0.12)
*|I (MNM0:b MNM0 b B 0.0 0.084 0.12)
*|I (MNM1@8:b MNM1@8 b B 0.0 0.168 -0.12)
*|I (MNM0@8:b MNM0@8 b B 0.0 0.168 0.12)
*|I (MNM1@7:b MNM1@7 b B 0.0 0.252 -0.12)
*|I (MNM0@7:b MNM0@7 b B 0.0 0.252 0.12)
*|I (MNM1@6:b MNM1@6 b B 0.0 0.336 -0.12)
*|I (MNM0@6:b MNM0@6 b B 0.0 0.336 0.12)
*|S (VPW:1 -3.5445 0.0)
*|S (VPW:2 -1.7935 0.0)
*|S (VPW:3 0.546 -2.246)
*|S (VPW:4 0.546 2.246)
*|S (VPW:5 2.8855 0.0)
*|S (VPW:9 4.6365 0.0)
Cc_41 MNM1@5:b VIN:36 0.00116913f
Cc_42 MNM1@5:b VIN:37 0.000985509f
Cc_43 VPW:3 VIN:39 0.00146083f
Cc_44 MNM1@5:b VIN:40 0.00032546f
Cc_45 VPW:3 VIN:41 0.0010813f
Cc_46 MNM1@5:b VIN:42 0.000203869f
Cc_47 VPW:3 VIN:43 0.0010813f
Cc_48 MNM1@5:b VIN:44 0.000183468f
Cc_49 VPW:3 VIN:45 0.0010813f
Cc_50 MNM1@5:b VIN:46 0.000188897f
Cc_51 VPW:3 VIN:47 0.0010813f
Cc_52 MNM1@5:b VIN:48 0.000183468f
Cc_53 VPW:3 VIN:49 0.00108172f
Cc_54 MNM1@5:b VIN:50 0.000188897f
Cc_55 VPW:3 VIN:51 0.0010813f
Cc_56 MNM1@5:b VIN:52 0.000183468f
Cc_57 VPW:3 VIN:53 0.00145504f
Cc_58 MNM1@5:b VIN:54 0.000191678f
Cc_59 MNM1@5:b VIN:55 0.000433775f
Cc_60 MNM1@5:b VIN:56 0.000588767f
Cc_61 MNM1@5:b VIN:57 0.000294599f
Cc_62 MNM1@5:b VIN:58 0.000354183f
Cc_63 MNM1@5:b VIN:59 0.000273687f
Cc_64 MNM1@5:b VIN:60 0.000354185f
Cc_65 MNM1@5:b VIN:61 0.000273687f
Cc_66 MNM1@5:b VIN:62 0.000354265f
Cc_67 MNM1@5:b VIN:63 0.000273687f
Cc_68 MNM1@5:b VIN:64 0.000354185f
Cc_69 MNM1@5:b VIN:65 0.000273687f
Cc_70 MNM1@5:b VIN:66 0.000354265f
Cc_71 MNM1@5:b VIN:67 0.000273908f
Cc_72 MNM1@5:b VIN:68 0.000354265f
Cc_73 MNM1@5:b VIN:69 0.00032186f
Cc_74 MNM1@5:b VIN:70 0.000571507f
Cc_75 MNM1@5:b VIP 0.000357411f
Cc_76 MNM1@5:b VIP:36 0.000946069f
Cc_77 MNM1@5:b VIP:37 0.00112218f
Cc_78 MNM1@5:b VIP:38 0.000256953f
Cc_79 MNM1@5:b VIP:39 0.000313052f
Cc_80 VPW:4 VIP:40 0.00139504f
Cc_81 MNM1@5:b VIP:41 0.000195757f
Cc_82 VPW:4 VIP:42 0.000998272f
Cc_83 MNM1@5:b VIP:43 0.000175969f
Cc_84 VPW:4 VIP:44 0.000998272f
Cc_85 MNM1@5:b VIP:45 0.000181397f
Cc_86 VPW:4 VIP:46 0.000998272f
Cc_87 MNM1@5:b VIP:47 0.000175969f
Cc_88 VPW:4 VIP:48 0.000998272f
Cc_89 MNM1@5:b VIP:49 0.000181397f
Cc_90 VPW:4 VIP:50 0.000998272f
Cc_91 MNM1@5:b VIP:51 0.000175969f
Cc_92 VPW:4 VIP:52 0.000998272f
Cc_93 MNM1@5:b VIP:53 0.000184056f
Cc_94 VPW:4 VIP:54 0.00139504f
Cc_95 MNM1@5:b VIP:55 0.000565632f
Cc_96 MNM1@5:b VIP:56 0.000417057f
Cc_97 MNM1@5:b VIP:57 0.000339707f
Cc_98 MNM1@5:b VIP:58 0.000282807f
Cc_99 MNM1@5:b VIP:59 0.000339785f
Cc_100 MNM1@5:b VIP:60 0.000262501f
Cc_101 MNM1@5:b VIP:61 0.000339709f
Cc_102 MNM1@5:b VIP:62 0.000262501f
Cc_103 MNM1@5:b VIP:63 0.000339707f
Cc_104 MNM1@5:b VIP:64 0.000262501f
Cc_105 MNM1@5:b VIP:65 0.000339709f
Cc_106 MNM1@5:b VIP:66 0.000262501f
Cc_107 MNM1@5:b VIP:67 0.000339785f
Cc_108 MNM1@5:b VIP:68 0.000262712f
Cc_109 MNM1@5:b VIP:69 0.000548376f
Cc_110 MNM1@5:b VIP:70 0.000308891f
Cc_111 VPW:3 VOP:95 0.000428689f
Cc_112 MNM1@5:b VOP:95 0.000326269f
Cc_113 MNM1@5:b VOP:96 0.000324823f
Cc_114 VPW:3 VOP:97 0.00153449f
Cc_115 VPW:3 VOP:101 0.000646512f
Cc_116 MNM1@5:b VOP:102 0.00015077f
Cc_117 MNM1@5:b VOP:103 0.000712266f
Cc_118 MNM1@5:b VOP:104 0.000646278f
Cc_119 MNM1@5:b VOP:110 0.00105467f
Cc_120 MNM1@5:b VOP:112 0.00267661f
Cc_121 VPW:3 VOP:119 0.00143424f
Cc_122 MNM1@5:b VOP:120 0.000205535f
Cc_123 VPW:3 VOP:121 0.00144687f
Cc_124 MNM1@5:b VOP:122 0.000327433f
Cc_125 MNM1@5:b VOP:123 0.000330961f
Cc_126 MNM1@5:b VOP:124 0.000500535f
Cc_127 MNM1@5:b VOP:125 0.000441599f
Cc_128 MNM1@5:b VOP:126 0.000517342f
Cc_129 MNM1@5:b VON:95 0.000324823f
Cc_130 VPW:4 VON:96 0.000499033f
Cc_131 MNM1@5:b VON:96 0.000326269f
Cc_132 VPW:4 VON:98 0.00183431f
Cc_133 MNM1@5:b VON:101 0.000174444f
Cc_134 VPW:4 VON:102 0.000649741f
Cc_135 MNM1@5:b VON:103 0.000712266f
Cc_136 MNM1@5:b VON:104 0.000620619f
Cc_137 VPW:3 VON:110 0.000782767f
Cc_138 MNM1@5:b VON:110 0.00112293f
Cc_139 MNM1@5:b VON:112 0.00297494f
Cc_140 MNM1@5:b VON:119 0.000209787f
Cc_141 VPW:4 VON:120 0.00117924f
Cc_142 MNM1@5:b VON:121 0.000331685f
Cc_143 VPW:4 VON:122 0.00154166f
Cc_144 MNM1@5:b VON:123 0.000500451f
Cc_145 MNM1@5:b VON:124 0.000335462f
Cc_146 MNM1@5:b VON:125 0.000517344f
Cc_147 MNM1@5:b VON:126 0.000436963f
Cc_148 VPW:2 VDD:1 0.00205155f
Cc_149 MNM1@5:b VDD:1 0.00124546f
Cc_150 MNM1@5:b VDD:2 0.000307255f
Cc_151 MNM1@5:b VDD:3 0.000307843f
Cc_152 VPW:5 VDD:4 0.00214835f
Cc_153 MNM1@5:b VDD:4 0.0012491f
Cc_154 VPW:3 VDD:43 0.00308167f
Cc_155 VPW:3 VDD:44 0.00125906f
Cc_156 VPW:3 VDD:45 0.00124398f
Cc_157 VPW:3 VDD:46 0.00127805f
Cc_158 VPW:3 VDD:47 0.00136491f
Cc_159 VPW:3 VDD:48 0.00143908f
Cc_160 VPW:3 VDD:49 0.00290937f
Cc_161 VPW:5 VDD:49 0.000105003f
Cc_162 VPW:3 VDD:57 0.0322184f
Cc_163 VPW:2 VSS:1 0.00157157f
Cc_164 MNM1@5:b VSS:1 0.0012407f
Cc_165 VPW:2 VSS:2 0.00157911f
Cc_166 MNM1@5:b VSS:2 0.00123673f
Cc_167 MNM1@5:b VSS:3 0.000307382f
Cc_168 MNM1@5:b VSS:4 0.000307664f
Cc_169 MNM1@5:b VSS:5 0.000306401f
Cc_170 MNM1@5:b VSS:6 0.000307184f
Cc_171 VPW:5 VSS:7 0.00168174f
Cc_172 MNM1@5:b VSS:7 0.00124441f
Cc_173 VPW:5 VSS:8 0.0015981f
Cc_174 MNM1@5:b VSS:8 0.00124742f
Cc_175 VPW:2 VSS:78 0.000181659f
Cc_176 MNM1@5:b VSS:78 0.00141666f
Cc_177 VPW:5 VSS:84 0.000190976f
Cc_178 MNM1@5:b VSS:84 0.00135454f
Cc_179 MNM1@5:b VSS:99 0.0066884f
Cc_180 VPW:2 VDD__2:1 0.00229277f
Cc_181 MNM1@5:b VDD__2:1 0.0012495f
Cc_182 MNM1@5:b VDD__2:2 0.000309958f
Cc_183 MNM1@5:b VDD__2:3 0.000309971f
Cc_184 VPW:5 VDD__2:4 0.00235254f
Cc_185 MNM1@5:b VDD__2:4 0.00125643f
Cc_186 VPW:4 VDD__2:43 0.00333632f
Cc_187 VPW:4 VDD__2:44 0.00180215f
Cc_188 VPW:4 VDD__2:45 0.0018068f
Cc_189 VPW:4 VDD__2:46 0.00179961f
Cc_190 VPW:4 VDD__2:47 0.0019041f
Cc_191 VPW:4 VDD__2:48 0.00184736f
Cc_192 VPW:4 VDD__2:49 0.00322608f
Cc_193 VPW:5 VDD__2:49 0.000100611f
Cc_194 VPW:4 VDD__2:57 0.0323243f
R12 D0_noxref:pos VPW:1 1e-05
R13 D0_noxref:pos VPW:2 1e-05
R14 VPW:2 VPW:3 1e-05
R15 VPW:2 VPW:4 1e-05
R16 MNM1@5:b VPW:2 1e-05
R17 D0_noxref:pos VPW:3 1e-05
R18 VPW:3 VPW:5 1e-05
R19 D0_noxref:pos VPW:4 1e-05
R20 VPW:4 VPW:5 1e-05
R21 D0_noxref:pos VPW:5 1e-05
R22 MNM1@5:b VPW:5 1e-05
R23 MNM1@5:b MNM0@5:b 0.01
R24 MNM1@5:b MNM1@4:b 0.01
R25 MNM1@5:b MNM0@4:b 0.01
R26 MNM1@5:b MNM1@3:b 0.01
R27 MNM1@5:b MNM0@3:b 0.01
R28 MNM1@5:b MNM1@2:b 0.01
R29 MNM1@5:b MNM0@2:b 0.01
R30 MNM1@5:b MNM2:b 0.01
R31 MNM1@5:b MNM3:b 0.01
R32 MNM1@5:b MNM2@2:b 0.01
R33 MNM1@5:b MNM3@2:b 0.01
R34 MNM1@5:b MNM1:b 0.01
R35 MNM1@5:b MNM0:b 0.01
R36 MNM1@5:b MNM1@8:b 0.01
R37 MNM1@5:b MNM0@8:b 0.01
R38 MNM1@5:b MNM1@7:b 0.01
R39 MNM1@5:b MNM0@7:b 0.01
R40 MNM1@5:b MNM1@6:b 0.01
R41 MNM1@5:b MNM0@6:b 0.01
R42 MNM1@5:b D0_noxref:pos 0.01
R43 D0_noxref:pos VPW:9 1e-05
R44 D0_noxref:pos D1_noxref:pos 0.01
R45 D0_noxref:pos VPW 1e-05
R46 D0_noxref:pos VPW 1e-05

*|NET VNW__2 0.00991828f
*|P (VNW B 0.0 0.052 0.48)
*|I (D1_noxref:neg D1_noxref neg B 0.0 0.546 0.36)
*|I (MPM0:b MPM0 b B 0.0 0.084 0.36)
*|I (MPM0@8:b MPM0@8 b B 0.0 0.168 0.36)
*|I (MPM0@7:b MPM0@7 b B 0.0 0.252 0.36)
*|I (MPM0@6:b MPM0@6 b B 0.0 0.336 0.36)
*|I (MPM0@5:b MPM0@5 b B 0.0 0.42 0.36)
*|I (MPM0@4:b MPM0@4 b B 0.0 0.504 0.36)
*|I (MPM0@3:b MPM0@3 b B 0.0 0.588 0.36)
*|I (MPM0@2:b MPM0@2 b B 0.0 0.672 0.36)
*|I (MPM3:b MPM3 b B 0.0 0.924 0.36)
*|I (MPM3@2:b MPM3@2 b B 0.0 1.008 0.36)
Cc_195 D1_noxref:neg VIP:39 0.000215417f
Cc_196 D1_noxref:neg VIP:40 0.000369438f
Cc_197 D1_noxref:neg VIP:41 0.000247464f
Cc_198 D1_noxref:neg VIP:42 0.000426332f
Cc_199 D1_noxref:neg VIP:43 0.000256622f
Cc_200 D1_noxref:neg VIP:44 0.000426332f
Cc_201 D1_noxref:neg VIP:45 0.000256622f
Cc_202 D1_noxref:neg VIP:46 0.000426332f
Cc_203 D1_noxref:neg VIP:47 0.000256622f
Cc_204 D1_noxref:neg VIP:48 0.000426332f
Cc_205 D1_noxref:neg VIP:49 0.000256622f
Cc_206 D1_noxref:neg VIP:50 0.000426332f
Cc_207 D1_noxref:neg VIP:51 0.000256622f
Cc_208 D1_noxref:neg VIP:52 0.000426332f
Cc_209 D1_noxref:neg VIP:53 0.000251311f
Cc_210 D1_noxref:neg VIP:54 0.000369438f
Cc_211 D1_noxref:neg VIP:56 0.000180195f
Cc_212 D1_noxref:neg VIP:58 0.000172798f
Cc_213 D1_noxref:neg VIP:60 0.000181015f
Cc_214 D1_noxref:neg VIP:62 0.000181015f
Cc_215 D1_noxref:neg VIP:64 0.000181015f
Cc_216 D1_noxref:neg VIP:66 0.000181015f
Cc_217 D1_noxref:neg VIP:68 0.00018113f
Cc_218 D1_noxref:neg VIP:70 0.000198664f
Cc_219 D1_noxref:neg VON:119 0.000255227f
Cc_220 D1_noxref:neg VON:120 0.00047747f
Cc_221 D1_noxref:neg VON:121 0.000224652f
Cc_222 D1_noxref:neg VON:122 0.000388477f
Cc_223 D1_noxref:neg VON:124 0.000206107f
Cc_224 D1_noxref:neg VON:126 0.000187721f
Cc_225 D1_noxref:neg VSS:2 0.000175921f
Cc_226 D1_noxref:neg VSS:4 0.000180935f
Cc_227 D1_noxref:neg VSS:6 0.000175054f
Cc_228 D1_noxref:neg VSS:8 0.000178873f
Cc_229 D1_noxref:neg VDD__2:1 0.000177738f
Cc_230 D1_noxref:neg VDD__2:2 0.000182284f
Cc_231 D1_noxref:neg VDD__2:3 0.000176643f
Cc_232 D1_noxref:neg VDD__2:4 0.000180164f
R47 D1_noxref:neg VNW 1e-05
R48 D1_noxref:neg MPM0:b 0.01
R49 D1_noxref:neg MPM0@8:b 0.01
R50 D1_noxref:neg MPM0@7:b 0.01
R51 D1_noxref:neg MPM0@6:b 0.01
R52 D1_noxref:neg MPM0@5:b 0.01
R53 D1_noxref:neg MPM0@4:b 0.01
R54 D1_noxref:neg MPM0@3:b 0.01
R55 D1_noxref:neg MPM0@2:b 0.01
R56 D1_noxref:neg MPM3:b 0.01
R57 D1_noxref:neg MPM3@2:b 0.01

*|NET VIP 2.10474f
*|P (VIP B 0.0 0.048 0.24)
*|I (MPM0:g MPM0 g B 0.0 0.084 0.36)
*|I (MPM0@8:g MPM0@8 g B 0.0 0.168 0.36)
*|I (MPM0@7:g MPM0@7 g B 0.0 0.252 0.36)
*|I (MPM0@6:g MPM0@6 g B 0.0 0.336 0.36)
*|I (MPM0@5:g MPM0@5 g B 0.0 0.42 0.36)
*|I (MPM0@4:g MPM0@4 g B 0.0 0.504 0.36)
*|I (MPM0@3:g MPM0@3 g B 0.0 0.588 0.36)
*|I (MPM0@2:g MPM0@2 g B 0.0 0.672 0.36)
*|I (MNM0:g MNM0 g B 0.0 0.084 0.12)
*|I (MNM0@8:g MNM0@8 g B 0.0 0.168 0.12)
*|I (MNM0@7:g MNM0@7 g B 0.0 0.252 0.12)
*|I (MNM0@6:g MNM0@6 g B 0.0 0.336 0.12)
*|I (MNM0@5:g MNM0@5 g B 0.0 0.42 0.12)
*|I (MNM0@4:g MNM0@4 g B 0.0 0.504 0.12)
*|I (MNM0@3:g MNM0@3 g B 0.0 0.588 0.12)
*|I (MNM0@2:g MNM0@2 g B 0.0 0.672 0.12)
*|S (VIP:34 0.0695 0.24)
*|S (VIP:36 0.048 0.198)
*|S (VIP:37 0.048 0.282)
*|S (VIP:38 0.08 0.24)
*|S (VIP:39 0.084 0.251)
*|S (VIP:40 0.084 0.445)
*|S (VIP:41 0.168 0.251)
*|S (VIP:42 0.168 0.445)
*|S (VIP:43 0.252 0.251)
*|S (VIP:44 0.252 0.445)
*|S (VIP:45 0.336 0.251)
*|S (VIP:46 0.336 0.445)
*|S (VIP:47 0.42 0.251)
*|S (VIP:48 0.42 0.445)
*|S (VIP:49 0.504 0.251)
*|S (VIP:50 0.504 0.445)
*|S (VIP:51 0.588 0.251)
*|S (VIP:52 0.588 0.445)
*|S (VIP:53 0.672 0.251)
*|S (VIP:54 0.672 0.445)
*|S (VIP:55 0.084 0.035)
*|S (VIP:56 0.084 0.205)
*|S (VIP:57 0.168 0.035)
*|S (VIP:58 0.168 0.205)
*|S (VIP:59 0.252 0.035)
*|S (VIP:60 0.252 0.205)
*|S (VIP:61 0.336 0.035)
*|S (VIP:62 0.336 0.205)
*|S (VIP:63 0.42 0.035)
*|S (VIP:64 0.42 0.205)
*|S (VIP:65 0.504 0.035)
*|S (VIP:66 0.504 0.205)
*|S (VIP:67 0.588 0.035)
*|S (VIP:68 0.588 0.205)
*|S (VIP:69 0.672 0.035)
*|S (VIP:70 0.672 0.205)
*|S (VIP:71 0.084 0.288)
*|S (VIP:72 0.084 0.432)
*|S (VIP:73 0.084 0.275)
*|S (VIP:74 0.084 0.24)
*|S (VIP:75 0.084 0.229)
*|S (VIP:76 0.084 0.192)
*|S (VIP:77 0.099 0.24)
*|S (VIP:78 0.141 0.24)
*|S (VIP:79 0.168 0.24)
*|S (VIP:80 0.21 0.24)
*|S (VIP:81 0.252 0.24)
*|S (VIP:82 0.294 0.24)
*|S (VIP:83 0.336 0.24)
*|S (VIP:84 0.378 0.24)
*|S (VIP:85 0.42 0.24)
*|S (VIP:86 0.462 0.24)
*|S (VIP:87 0.504 0.24)
*|S (VIP:88 0.546 0.24)
*|S (VIP:89 0.588 0.24)
*|S (VIP:90 0.63 0.24)
*|S (VIP:91 0.672 0.24)
*|S (VIP:93 0.084 0.048)
*|S (VIP:94 0.168 0.275)
*|S (VIP:95 0.168 0.288)
*|S (VIP:96 0.168 0.24)
*|S (VIP:97 0.252 0.275)
*|S (VIP:98 0.252 0.288)
*|S (VIP:99 0.252 0.24)
*|S (VIP:100 0.336 0.275)
*|S (VIP:101 0.336 0.288)
*|S (VIP:102 0.336 0.24)
*|S (VIP:103 0.42 0.275)
*|S (VIP:104 0.42 0.288)
*|S (VIP:105 0.42 0.24)
*|S (VIP:106 0.504 0.275)
*|S (VIP:107 0.504 0.288)
*|S (VIP:108 0.504 0.24)
*|S (VIP:109 0.588 0.275)
*|S (VIP:110 0.588 0.288)
*|S (VIP:111 0.588 0.24)
*|S (VIP:112 0.672 0.275)
*|S (VIP:113 0.672 0.288)
*|S (VIP:114 0.672 0.24)
*|S (VIP:115 0.168 0.229)
*|S (VIP:116 0.168 0.192)
*|S (VIP:117 0.252 0.229)
*|S (VIP:118 0.252 0.192)
*|S (VIP:119 0.336 0.229)
*|S (VIP:120 0.336 0.192)
*|S (VIP:121 0.42 0.229)
*|S (VIP:122 0.42 0.192)
*|S (VIP:123 0.504 0.229)
*|S (VIP:124 0.504 0.192)
*|S (VIP:125 0.588 0.229)
*|S (VIP:126 0.588 0.192)
*|S (VIP:127 0.672 0.229)
*|S (VIP:128 0.672 0.192)
*|S (VIP:129 0.1005 0.24)
*|S (VIP:130 0.1165 0.24)
*|S (VIP:133 0.168 0.432)
*|S (VIP:134 0.252 0.432)
*|S (VIP:135 0.336 0.432)
*|S (VIP:136 0.42 0.432)
*|S (VIP:137 0.504 0.432)
*|S (VIP:138 0.588 0.432)
*|S (VIP:139 0.672 0.432)
*|S (VIP:140 0.168 0.048)
*|S (VIP:141 0.252 0.048)
*|S (VIP:142 0.336 0.048)
*|S (VIP:143 0.42 0.048)
*|S (VIP:144 0.504 0.048)
*|S (VIP:145 0.588 0.048)
*|S (VIP:146 0.672 0.048)
Cg_233 MPM0:g 0 0.000352339f
Cg_234 MPM0@8:g 0 1.43818e-25
Cg_235 MPM0@7:g 0 2.3851e-25
Cg_236 MPM0@6:g 0 3.95124e-25
Cg_237 MPM0@5:g 0 2.5776e-25
Cg_238 MPM0@4:g 0 2.3851e-25
Cg_239 MPM0@3:g 0 2.33127e-25
Cg_240 MPM0@2:g 0 0.000501113f
Cg_241 MNM0:g 0 0.000412413f
Cg_242 MNM0@8:g 0 3.54566e-25
Cg_243 MNM0@7:g 0 9.77886e-21
Cg_244 MNM0@6:g 0 3.88327e-25
Cg_245 MNM0@5:g 0 2.61245e-25
Cg_246 MNM0@4:g 0 2.22326e-25
Cg_247 MNM0@3:g 0 1.27731e-25
Cg_248 MNM0@2:g 0 0.000435794f
Cg_249 VIP:34 0 0.000577898f
Cg_250 VIP 0 0.000325321f
Cg_251 VIP:36 0 0.0066832f
Cg_252 VIP:37 0 0.0063859f
Cg_253 VIP:38 0 0.00843173f
Cg_254 VIP:39 0 0.000122097f
Cg_255 VIP:40 0 0.000184159f
Cg_256 VIP:41 0 0.000121431f
Cg_257 VIP:42 0 1.0571e-25
Cg_258 VIP:43 0 0.000126967f
Cg_259 VIP:44 0 5.89968e-20
Cg_260 VIP:45 0 0.000121539f
Cg_261 VIP:46 0 1.05897e-25
Cg_262 VIP:47 0 0.000126958f
Cg_263 VIP:48 0 7.21486e-20
Cg_264 VIP:49 0 0.000121539f
Cg_265 VIP:50 0 5.52674e-20
Cg_266 VIP:51 0 0.000126957f
Cg_267 VIP:52 0 7.3127e-26
Cg_268 VIP:53 0 0.000147443f
Cg_269 VIP:54 0 0.000349578f
Cg_270 VIP:55 0 0.000783207f
Cg_271 VIP:56 0 0.000139875f
Cg_272 VIP:57 0 0.000632015f
Cg_273 VIP:58 0 0.000136589f
Cg_274 VIP:59 0 0.000484842f
Cg_275 VIP:60 0 4.56354e-26
Cg_276 VIP:61 0 0.00051177f
Cg_277 VIP:62 0 9.42508e-26
Cg_278 VIP:63 0 0.000384515f
Cg_279 VIP:64 0 4.56354e-26
Cg_280 VIP:65 0 0.000552611f
Cg_281 VIP:66 0 9.42508e-26
Cg_282 VIP:67 0 0.000512802f
Cg_283 VIP:68 0 0.0001428f
Cg_284 VIP:69 0 0.000749852f
Cg_285 VIP:70 0 0.000180849f
Cc_286 VIP:57 MNM1@8:g 0.000122667f
Cc_287 VIP:59 MNM1@7:g 0.000122585f
Cc_288 VIP:61 MNM1@6:g 0.000122585f
Cc_289 VIP:63 MNM1@5:g 0.000122585f
Cc_290 VIP:65 MNM1@4:g 0.000122585f
Cc_291 VIP:67 MNM1@3:g 0.000122667f
Cc_292 VIP:55 VIN:56 0.00351439f
Cc_293 MNM0@8:g VIN:58 0.000122667f
Cc_294 VIP:57 VIN:58 0.00418042f
Cc_295 MNM0@7:g VIN:60 0.000122585f
Cc_296 VIP:59 VIN:60 0.00417436f
Cc_297 MNM0@6:g VIN:62 0.000122585f
Cc_298 VIP:61 VIN:62 0.00417421f
Cc_299 MNM0@5:g VIN:64 0.000122585f
Cc_300 VIP:63 VIN:64 0.00417728f
Cc_301 MNM0@4:g VIN:66 0.000122585f
Cc_302 VIP:65 VIN:66 0.00417421f
Cc_303 MNM0@3:g VIN:68 0.000122667f
Cc_304 VIP:67 VIN:68 0.00417427f
Cc_305 VIP:69 VIN:70 0.00351439f
R58 MPM0:g VIP:71 540
R59 MPM0:g VIP:72 540
R60 MPM0@8:g VIP:95 540
R61 MPM0@8:g VIP:133 540
R62 MPM0@7:g VIP:98 540
R63 MPM0@7:g VIP:134 540
R64 MPM0@6:g VIP:101 540
R65 MPM0@6:g VIP:135 540
R66 MPM0@5:g VIP:104 540
R67 MPM0@5:g VIP:136 540
R68 MPM0@4:g VIP:107 540
R69 MPM0@4:g VIP:137 540
R70 MPM0@3:g VIP:110 540
R71 MPM0@3:g VIP:138 540
R72 MPM0@2:g VIP:113 540
R73 MPM0@2:g VIP:139 540
R74 MNM0:g VIP:76 450
R75 MNM0:g VIP:93 450
R76 MNM0@8:g VIP:116 450
R77 MNM0@8:g VIP:140 450
R78 MNM0@7:g VIP:118 450
R79 MNM0@7:g VIP:141 450
R80 MNM0@6:g VIP:120 450
R81 MNM0@6:g VIP:142 450
R82 MNM0@5:g VIP:122 450
R83 MNM0@5:g VIP:143 450
R84 MNM0@4:g VIP:124 450
R85 MNM0@4:g VIP:144 450
R86 MNM0@3:g VIP:126 450
R87 MNM0@3:g VIP:145 450
R88 MNM0@2:g VIP:128 450
R89 MNM0@2:g VIP:146 450
R90 VIP:34 VIP:77 2.81591
R91 VIP:34 VIP:39 108.862
R92 VIP:34 VIP:75 108.862
R93 VIP VIP:38 0.413131
R94 VIP VIP:36 0.864591
R95 VIP VIP:37 0.864591
R96 VIP:38 VIP:129 0.189717
R97 VIP:39 VIP:73 71
R98 VIP:39 VIP:74 32.5417
R99 VIP:40 VIP:72 38.4583
R100 VIP:41 VIP:94 71
R101 VIP:41 VIP:96 32.5417
R102 VIP:41 VIP:79 108.862
R103 VIP:42 VIP:133 38.4583
R104 VIP:43 VIP:97 71
R105 VIP:43 VIP:99 32.5417
R106 VIP:43 VIP:81 108.862
R107 VIP:44 VIP:134 38.4583
R108 VIP:45 VIP:100 71
R109 VIP:45 VIP:102 32.5417
R110 VIP:45 VIP:83 108.862
R111 VIP:46 VIP:135 38.4583
R112 VIP:47 VIP:103 71
R113 VIP:47 VIP:105 32.5417
R114 VIP:47 VIP:85 108.862
R115 VIP:48 VIP:136 38.4583
R116 VIP:49 VIP:106 71
R117 VIP:49 VIP:108 32.5417
R118 VIP:49 VIP:87 108.862
R119 VIP:50 VIP:137 38.4583
R120 VIP:51 VIP:109 71
R121 VIP:51 VIP:111 32.5417
R122 VIP:51 VIP:89 108.862
R123 VIP:52 VIP:138 38.4583
R124 VIP:53 VIP:112 71
R125 VIP:53 VIP:114 32.5417
R126 VIP:53 VIP:91 108.862
R127 VIP:54 VIP:139 38.4583
R128 VIP:55 VIP:93 36.8333
R129 VIP:56 VIP:75 68
R130 VIP:56 VIP:76 36.8333
R131 VIP:57 VIP:140 36.8333
R132 VIP:58 VIP:115 68
R133 VIP:58 VIP:116 36.8333
R134 VIP:59 VIP:141 36.8333
R135 VIP:60 VIP:117 68
R136 VIP:60 VIP:118 36.8333
R137 VIP:61 VIP:142 36.8333
R138 VIP:62 VIP:119 68
R139 VIP:62 VIP:120 36.8333
R140 VIP:63 VIP:143 36.8333
R141 VIP:64 VIP:121 68
R142 VIP:64 VIP:122 36.8333
R143 VIP:65 VIP:144 36.8333
R144 VIP:66 VIP:123 68
R145 VIP:66 VIP:124 36.8333
R146 VIP:67 VIP:145 36.8333
R147 VIP:68 VIP:125 68
R148 VIP:68 VIP:126 36.8333
R149 VIP:69 VIP:146 36.8333
R150 VIP:70 VIP:127 68
R151 VIP:70 VIP:128 36.8333
R152 VIP:71 VIP:73 38.4583
R153 VIP:74 VIP:75 31.1667
R154 VIP:77 VIP:78 4.00909
R155 VIP:77 VIP:130 14
R156 VIP:78 VIP:79 2.57727
R157 VIP:79 VIP:80 4.00909
R158 VIP:79 VIP:115 108.862
R159 VIP:80 VIP:81 4.00909
R160 VIP:81 VIP:82 4.00909
R161 VIP:81 VIP:117 108.862
R162 VIP:82 VIP:83 4.00909
R163 VIP:83 VIP:84 4.00909
R164 VIP:83 VIP:119 108.862
R165 VIP:84 VIP:85 4.00909
R166 VIP:85 VIP:86 4.00909
R167 VIP:85 VIP:121 108.862
R168 VIP:86 VIP:87 4.00909
R169 VIP:87 VIP:88 4.00909
R170 VIP:87 VIP:123 108.862
R171 VIP:88 VIP:89 4.00909
R172 VIP:89 VIP:90 4.00909
R173 VIP:89 VIP:125 108.862
R174 VIP:90 VIP:91 4.00909
R175 VIP:91 VIP:127 108.862
R176 VIP:94 VIP:95 38.4583
R177 VIP:96 VIP:115 31.1667
R178 VIP:97 VIP:98 38.4583
R179 VIP:99 VIP:117 31.1667
R180 VIP:100 VIP:101 38.4583
R181 VIP:102 VIP:119 31.1667
R182 VIP:103 VIP:104 38.4583
R183 VIP:105 VIP:121 31.1667
R184 VIP:106 VIP:107 38.4583
R185 VIP:108 VIP:123 31.1667
R186 VIP:109 VIP:110 38.4583
R187 VIP:111 VIP:125 31.1667
R188 VIP:112 VIP:113 38.4583
R189 VIP:114 VIP:127 31.1667
R190 VIP:129 VIP:130 0.206265

*|NET VDD__2 1.06461f
*|P (VDD B 0.0 0.052 0.48)
*|I (MPM0:s MPM0 s B 0.0 0.0721 0.36)
*|I (MPM0@8:s MPM0@8 s B 0.0 0.1799 0.36)
*|I (MPM0@7:s MPM0@7 s B 0.0 0.2401 0.36)
*|I (MPM0@6:s MPM0@6 s B 0.0 0.3478 0.36)
*|I (MPM0@5:s MPM0@5 s B 0.0 0.4082 0.36)
*|I (MPM0@4:s MPM0@4 s B 0.0 0.5158 0.36)
*|I (MPM0@3:s MPM0@3 s B 0.0 0.5762 0.36)
*|I (MPM0@2:s MPM0@2 s B 0.0 0.6839 0.36)
*|I (MPM3:s MPM3 s B 0.0 0.9121 0.36)
*|I (MPM3@2:s MPM3@2 s B 0.0 1.0199 0.36)
*|S (VDD__2:1 0.042 0.2957)
*|S (VDD__2:2 0.714 0.2957)
*|S (VDD__2:3 0.882 0.2957)
*|S (VDD__2:4 1.05 0.2957)
*|S (VDD__2:5 0.21 0.2972)
*|S (VDD__2:6 0.378 0.2972)
*|S (VDD__2:7 0.546 0.2972)
*|S (VDD__2:43 0.042 0.407)
*|S (VDD__2:44 0.21 0.407)
*|S (VDD__2:45 0.378 0.407)
*|S (VDD__2:46 0.546 0.407)
*|S (VDD__2:47 0.714 0.407)
*|S (VDD__2:48 0.882 0.407)
*|S (VDD__2:49 1.05 0.407)
*|S (VDD__2:50 0.0215 0.36)
*|S (VDD__2:51 0.189 0.36)
*|S (VDD__2:52 0.357 0.36)
*|S (VDD__2:53 0.525 0.36)
*|S (VDD__2:54 0.693 0.36)
*|S (VDD__2:55 0.8615 0.36)
*|S (VDD__2:56 1.029 0.36)
*|S (VDD__2:57 -0.0095 0.48)
*|S (VDD__2:62 0.042 0.312)
*|S (VDD__2:63 0.042 0.336)
*|S (VDD__2:64 0.042 0.36)
*|S (VDD__2:65 0.042 0.3738)
*|S (VDD__2:66 0.042 0.407)
*|S (VDD__2:68 0.042 0.44)
*|S (VDD__2:69 0.042 0.464)
*|S (VDD__2:71 0.028 0.48)
*|S (VDD__2:73 0.062 0.48)
*|S (VDD__2:74 0.0865 0.48)
*|S (VDD__2:75 0.1275 0.48)
*|S (VDD__2:76 0.171 0.48)
*|S (VDD__2:77 0.21 0.48)
*|S (VDD__2:78 0.237 0.48)
*|S (VDD__2:79 0.305 0.48)
*|S (VDD__2:80 0.378 0.48)
*|S (VDD__2:81 0.462 0.48)
*|S (VDD__2:82 0.546 0.48)
*|S (VDD__2:83 0.619 0.48)
*|S (VDD__2:84 0.687 0.48)
*|S (VDD__2:85 0.714 0.48)
*|S (VDD__2:86 0.798 0.48)
*|S (VDD__2:87 0.873 0.48)
*|S (VDD__2:88 0.889 0.48)
*|S (VDD__2:89 0.907 0.48)
*|S (VDD__2:90 0.934 0.48)
*|S (VDD__2:91 0.971 0.48)
*|S (VDD__2:92 1.012 0.48)
*|S (VDD__2:93 1.05 0.48)
*|S (VDD__2:95 0.21 0.44)
*|S (VDD__2:96 0.21 0.464)
*|S (VDD__2:98 0.378 0.44)
*|S (VDD__2:99 0.378 0.464)
*|S (VDD__2:101 0.546 0.44)
*|S (VDD__2:102 0.546 0.464)
*|S (VDD__2:104 0.714 0.44)
*|S (VDD__2:105 0.714 0.464)
*|S (VDD__2:107 0.882 0.44)
*|S (VDD__2:108 0.882 0.464)
*|S (VDD__2:110 1.05 0.44)
*|S (VDD__2:111 1.05 0.464)
*|S (VDD__2:113 0.21 0.312)
*|S (VDD__2:114 0.21 0.336)
*|S (VDD__2:115 0.21 0.36)
*|S (VDD__2:116 0.21 0.3738)
*|S (VDD__2:117 0.21 0.407)
*|S (VDD__2:118 0.378 0.312)
*|S (VDD__2:119 0.378 0.336)
*|S (VDD__2:120 0.378 0.36)
*|S (VDD__2:121 0.378 0.3738)
*|S (VDD__2:122 0.378 0.407)
*|S (VDD__2:123 0.546 0.312)
*|S (VDD__2:124 0.546 0.336)
*|S (VDD__2:125 0.546 0.36)
*|S (VDD__2:126 0.546 0.3738)
*|S (VDD__2:127 0.546 0.407)
*|S (VDD__2:128 0.714 0.312)
*|S (VDD__2:129 0.714 0.336)
*|S (VDD__2:130 0.714 0.36)
*|S (VDD__2:131 0.714 0.3738)
*|S (VDD__2:132 0.714 0.407)
*|S (VDD__2:134 0.882 0.312)
*|S (VDD__2:135 0.882 0.336)
*|S (VDD__2:136 0.882 0.36)
*|S (VDD__2:137 0.882 0.3738)
*|S (VDD__2:138 0.882 0.407)
*|S (VDD__2:140 1.05 0.312)
*|S (VDD__2:141 1.05 0.336)
*|S (VDD__2:142 1.05 0.36)
*|S (VDD__2:143 1.05 0.3738)
*|S (VDD__2:144 1.05 0.407)
*|S (VDD__2:162 0.714 0.36)
*|S (VDD__2:170 1.05 0.36)
Cg_306 VDD__2:1 0 0.00132594f
Cg_307 VDD__2:2 0 0.0023634f
Cg_308 VDD__2:3 0 0.00180489f
Cg_309 VDD__2:4 0 0.000741642f
Cg_310 VDD__2:5 0 8.92181e-20
Cg_311 VDD__2:6 0 8.84838e-20
Cg_312 VDD__2:7 0 8.84838e-20
Cg_313 VDD__2:43 0 0.000611069f
Cg_314 VDD__2:44 0 0.000123501f
Cg_315 VDD__2:45 0 7.21488e-20
Cg_316 VDD__2:46 0 5.52676e-20
Cg_317 VDD__2:47 0 0.000597608f
Cg_318 VDD__2:48 0 0.000566952f
Cg_319 VDD__2:49 0 0.000503335f
Cg_320 VDD__2:57 0 0.0952346f
Cc_321 VDD__2:1 MPM0:g 0.017033f
Cc_322 VDD__2:50 MPM0:g 0.0396039f
Cc_323 VDD__2:5 MPM0@8:g 0.00507318f
Cc_324 VDD__2:51 MPM0@8:g 0.0375014f
Cc_325 VDD__2:5 MPM0@7:g 0.0188511f
Cc_326 VDD__2:51 MPM0@7:g 0.0375014f
Cc_327 VDD__2:6 MPM0@6:g 0.0186877f
Cc_328 VDD__2:52 MPM0@6:g 0.0375014f
Cc_329 VDD__2:6 MPM0@5:g 0.00494649f
Cc_330 VDD__2:52 MPM0@5:g 0.0375014f
Cc_331 VDD__2:7 MPM0@4:g 0.0188511f
Cc_332 VDD__2:53 MPM0@4:g 0.0375014f
Cc_333 VDD__2:7 MPM0@3:g 0.00507318f
Cc_334 VDD__2:53 MPM0@3:g 0.0375014f
Cc_335 VDD__2:2 MPM0@2:g 0.0163884f
Cc_336 VDD__2:54 MPM0@2:g 0.039493f
Cc_337 VDD__2:1 MNM0:g 0.000534144f
Cc_338 VDD__2:50 MNM0:g 0.000100477f
Cc_339 VDD__2:2 MNM0@2:g 0.000371572f
Cc_340 VDD__2:1 VIP:34 0.000271702f
Cc_341 VDD__2:6 VIP:34 0.0123572f
Cc_342 VDD__2:1 VIP 0.000357426f
Cc_343 VDD__2:1 VIP:36 0.000470518f
Cc_344 VDD__2:1 VIP:37 0.000190609f
Cc_345 VDD__2:43 VIP:37 0.00225626f
Cc_346 VDD__2:57 VIP:37 0.000301769f
Cc_347 VDD__2:1 VIP:38 0.000350847f
Cc_348 VDD__2:57 VIP:38 0.000588193f
Cc_349 VDD__2:1 VIP:39 0.000160863f
Cc_350 VDD__2:50 VIP:39 0.00517886f
Cc_351 VDD__2:1 VIP:40 0.000100988f
Cc_352 VDD__2:43 VIP:40 0.00234267f
Cc_353 VDD__2:50 VIP:40 0.003704f
Cc_354 VDD__2:51 VIP:41 0.00764641f
Cc_355 VDD__2:44 VIP:42 0.00325834f
Cc_356 VDD__2:51 VIP:42 0.00347208f
Cc_357 VDD__2:51 VIP:43 0.00192635f
Cc_358 VDD__2:51 VIP:44 0.00347208f
Cc_359 VDD__2:52 VIP:45 0.00192901f
Cc_360 VDD__2:45 VIP:46 0.00327698f
Cc_361 VDD__2:52 VIP:46 0.00347208f
Cc_362 VDD__2:52 VIP:47 0.00764912f
Cc_363 VDD__2:52 VIP:48 0.00347208f
Cc_364 VDD__2:57 VIP:48 0.00228413f
Cc_365 VDD__2:53 VIP:49 0.00192635f
Cc_366 VDD__2:46 VIP:50 0.0032335f
Cc_367 VDD__2:53 VIP:50 0.00347208f
Cc_368 VDD__2:53 VIP:51 0.00764646f
Cc_369 VDD__2:53 VIP:52 0.00347208f
Cc_370 VDD__2:2 VIP:53 0.000148501f
Cc_371 VDD__2:54 VIP:53 0.00510389f
Cc_372 VDD__2:47 VIP:54 0.00169943f
Cc_373 VDD__2:54 VIP:54 0.00370277f
Cc_374 VDD__2:57 VIP:54 0.000159523f
Cc_375 VDD__2:1 VIP:55 0.000113569f
Cc_376 VDD__2:1 VIP:56 0.000740035f
Cc_377 VDD__2:51 VIP:58 0.000330346f
Cc_378 VDD__2:51 VIP:60 0.000319036f
Cc_379 VDD__2:52 VIP:62 0.000319036f
Cc_380 VDD__2:52 VIP:64 0.000319036f
Cc_381 VDD__2:53 VIP:66 0.000319036f
Cc_382 VDD__2:53 VIP:68 0.00033423f
Cc_383 VDD__2:2 VIP:69 0.000110203f
Cc_384 VDD__2:2 VIP:70 0.000751953f
Cc_385 VDD__2:3 VOP:14 0.00223329f
Cc_386 VDD__2:48 VOP:14 0.00282179f
Cc_387 VDD__2:4 VOP:78 0.000295172f
Cc_388 VDD__2:4 VOP:79 0.00197777f
Cc_389 VDD__2:49 VOP:79 0.00916344f
Cc_390 VDD__2:3 VOP:89 0.00120099f
Cc_391 VDD__2:4 VOP:89 0.000235021f
Cc_392 VDD__2:55 VOP:94 0.000151137f
Cc_393 VDD__2:4 VOP:110 0.00164093f
Cc_394 VDD__2:57 VOP:110 0.00271409f
Cc_395 VDD__2:47 VOP:112 0.000112684f
Cc_396 VDD__2:3 MPM3:g 0.0182298f
Cc_397 VDD__2:55 MPM3:g 0.0396298f
Cc_398 VDD__2:4 MPM3@2:g 0.0161926f
Cc_399 VDD__2:56 MPM3@2:g 0.039493f
Cc_400 VDD__2:3 MNM3:g 0.000751066f
Cc_401 VDD__2:55 MNM3:g 0.000135458f
Cc_402 VDD__2:4 MNM3@2:g 0.000446012f
Cc_403 VDD__2:1 VON:6 0.00276915f
Cc_404 VDD__2:43 VON:6 0.00283087f
Cc_405 VDD__2:51 VON:8 0.00328012f
Cc_406 VDD__2:53 VON:10 0.00328165f
Cc_407 VDD__2:2 VON:12 0.00288465f
Cc_408 VDD__2:47 VON:12 0.00379564f
Cc_409 VDD__2:1 VON:71 0.00109945f
Cc_410 VDD__2:5 VON:71 0.0032061f
Cc_411 VDD__2:43 VON:71 0.00565336f
Cc_412 VDD__2:44 VON:73 0.00458341f
Cc_413 VDD__2:45 VON:73 0.000670236f
Cc_414 VDD__2:6 VON:75 0.003263f
Cc_415 VDD__2:45 VON:75 0.0052495f
Cc_416 VDD__2:2 VON:77 0.0016961f
Cc_417 VDD__2:7 VON:77 0.0032061f
Cc_418 VDD__2:46 VON:77 0.000745952f
Cc_419 VDD__2:47 VON:77 0.00479112f
Cc_420 VDD__2:3 VON:80 0.00600808f
Cc_421 VDD__2:4 VON:80 0.000302547f
Cc_422 VDD__2:55 VON:80 0.000121293f
Cc_423 VDD__2:2 VON:88 0.000256783f
Cc_424 VDD__2:50 VON:90 0.000201774f
Cc_425 VDD__2:2 VON:93 0.000216819f
Cc_426 VDD__2:54 VON:93 0.000113845f
Cc_427 VDD__2:44 VON:96 0.000364371f
Cc_428 VDD__2:57 VON:96 0.00411297f
Cc_429 VDD__2:45 VON:98 0.0119877f
Cc_430 VDD__2:46 VON:98 0.0120195f
Cc_431 VDD__2:47 VON:98 0.000728858f
Cc_432 VDD__2:57 VON:98 0.042022f
Cc_433 VDD__2:44 VON:102 0.00699905f
Cc_434 VDD__2:57 VON:102 0.00980482f
Cc_435 VDD__2:5 VON:103 0.000761299f
Cc_436 VDD__2:6 VON:104 0.000608246f
Cc_437 VDD__2:46 VON:106 0.000426221f
Cc_438 VDD__2:47 VON:106 0.00037406f
Cc_439 VDD__2:2 VON:107 0.000833039f
Cc_440 VDD__2:3 VON:107 0.000146285f
Cc_441 VDD__2:57 VON:107 0.00312513f
Cc_442 VDD__2:48 VON:109 0.00158182f
Cc_443 VDD__2:57 VON:109 0.000456365f
Cc_444 VDD__2:55 VON:112 0.000170397f
Cc_445 VDD__2:3 VON:119 0.000114779f
Cc_446 VDD__2:55 VON:119 0.00509058f
Cc_447 VDD__2:3 VON:120 0.000115829f
Cc_448 VDD__2:48 VON:120 0.00235101f
Cc_449 VDD__2:55 VON:120 0.00385142f
Cc_450 VDD__2:4 VON:121 0.000203295f
Cc_451 VDD__2:56 VON:121 0.00233751f
Cc_452 VDD__2:4 VON:122 0.0001008f
Cc_453 VDD__2:49 VON:122 0.00158532f