*|DSPF	1.5
*|DESIGN	nsw1
*|DATE	"Mon Jan 7 2019"
*|VENDOR	"Mentor Graphics Corporation"
*|PROGRAM	"Calibre xACT"
*|VERSION	"v2018.1_16.11"
*|DIVIDER	|
*|DELIMITER	:
* Corner Name: 14lpp_13M_3Mx_2Cx_4Kx_2Hx_2Gx_LB_nominal_detailed_25
* Nominal Temperature: 25C
* Circuit Temperature: 25C
* 

* Integrated TICER reduction is not enabled.
* SHORT DELAY THRESHOLD: 2e-15
* Fill Mode: NF
* PEX REDUCE CC ABSOLUTE : 1
* PEX REDUCE CC RELATIVE : 0.01
* Delta transform mode : 344834


.subckt nsw1 NET7 NET6 VSS VDD NEG POS SW VNW VPW
*
* NET7 NET7
* NET6 NET6
* SW SW
* VSS VSS
* VDD VDD
* NEG NEG
* noxref_S noxref_S
* POS POS
* noxref_POS noxref_POS
* noxref_SW noxref_SW
* VNW VNW
* VPW VPW
*
*|GROUND_NET 0
*
* Net Section
*


*|NET VNW 0.00762046f
*|P (VNW B 0.0 0.052 0.48)
*|I (XI2|MMMP1:b XI2|MMMP1 b B 0.0 0.084 0.36)
*|I (XI1|MMMP1:b XI1|MMMP1 b B 0.0 0.42 0.36)
*|I (X4|M1_noxref:b X4|M1_noxref b B 0.0 0.252 0.36)
*|I (X5|M1_noxref:b X5|M1_noxref b B 0.0 0.588 0.36)
*|I (D0_noxref:neg D0_noxref neg B 0.0 0.42 0.36)
Cc_1 XI2|MMMP1:b NET7:27 0.00285244f
Cc_2 XI2|MMMP1:b NET7:29 0.000251186f
Cc_3 XI2|MMMP1:b noxref_3:29 0.000235358f
Cc_4 XI2|MMMP1:b noxref_3:30 0.000442173f
Cc_5 XI2|MMMP1:b noxref_3:32 0.000198115f
Cc_6 XI2|MMMP1:b VSS:1 0.000173591f
Cc_7 XI2|MMMP1:b VDD:1 0.000176129f
Cc_8 XI2|MMMP1:b VDD:17 0.000107307f
Cc_9 XI2|MMMP1:b POS:1 0.000848219f
Cc_10 XI2|MMMP1:b SW:9 0.000206678f
Cc_11 XI2|MMMP1:b SW:10 0.000351114f
Cc_12 XI2|MMMP1:b SW:12 0.000173974f
R1 XI2|MMMP1:b VNW 1e-05 $X=0.084 $Y=0.36 $X2=0.052 $Y2=0.48
R2 XI2|MMMP1:b XI1|MMMP1:b 0.01 $X=0.084 $Y=0.36 $X2=0.42 $Y2=0.36
R3 XI2|MMMP1:b X4|M1_noxref:b 0.01 $X=0.084 $Y=0.36 $X2=0.252 $Y2=0.36
R4 XI2|MMMP1:b X5|M1_noxref:b 0.01 $X=0.084 $Y=0.36 $X2=0.588 $Y2=0.36
R5 XI2|MMMP1:b D0_noxref:neg 0.01 $X=0.084 $Y=0.36 $X2=0.42 $Y2=0.36

*|NET VPW 0.144888f
*|P (VPW B 0.0 0.052 0.0)
*|I (XI2|MMMN1:b XI2|MMMN1 b B 0.0 0.084 0.12)
*|I (XI1|MMMN1:b XI1|MMMN1 b B 0.0 0.42 0.12)
*|I (X4|M0_noxref:b X4|M0_noxref b B 0.0 0.252 0.12)
*|I (X5|M0_noxref:b X5|M0_noxref b B 0.0 0.588 0.12)
*|I (XI0|MN0:b XI0|MN0 b B 0.0 0.756 0.12)
*|I (D0_noxref:pos D0_noxref pos B 0.0 0.42 0.36)
*|S (VPW:1 -3.5445 0.24)
*|S (VPW:2 -1.7935 0.24)
*|S (VPW:4 0.42 2.246)
*|S (VPW:5 2.6335 0.24)
*|S (VPW:12 4.3845 0.24)
Cg_13 XI2|MMMN1:b 0 0.00425444f
Cc_14 XI2|MMMN1:b NET7:2 0.000327966f
Cc_15 XI2|MMMN1:b NET7:3 0.000335516f
Cc_16 XI2|MMMN1:b NET7:18 0.000271363f
Cc_17 XI2|MMMN1:b NET7:19 0.000369523f
Cc_18 VPW:5 NET7:19 0.00022644f
Cc_19 XI2|MMMN1:b NET7:24 0.00202813f
Cc_20 XI2|MMMN1:b NET7:25 0.00170646f
Cc_21 VPW:5 NET7:25 0.000111564f
Cc_22 XI2|MMMN1:b NET7:27 0.00588194f
Cc_23 VPW:5 NET7:27 0.00221946f
Cc_24 XI2|MMMN1:b NET7:28 0.00241743f
Cc_25 XI2|MMMN1:b NET7:29 0.000689436f
Cc_26 VPW:5 NET7:29 0.000200138f
Cc_27 XI2|MMMN1:b noxref_3:3 0.000360731f
Cc_28 XI2|MMMN1:b noxref_3:4 0.000366114f
Cc_29 VPW:4 noxref_3:26 0.00178796f
Cc_30 XI2|MMMN1:b noxref_3:29 0.000644354f
Cc_31 VPW:4 noxref_3:30 0.00139943f
Cc_32 XI2|MMMN1:b noxref_3:31 0.00180459f
Cc_33 XI2|MMMN1:b noxref_3:32 0.000649782f
Cc_34 VPW:2 VSS:1 0.00158443f
Cc_35 XI2|MMMN1:b VSS:1 0.00244942f
Cc_36 XI2|MMMN1:b VSS:2 0.000615559f
Cc_37 XI2|MMMN1:b VSS:13 0.00318634f
Cc_38 XI2|MMMN1:b VSS:14 0.00171743f
Cc_39 XI2|MMMN1:b VSS:17 0.0340075f
Cc_40 VPW:5 VSS:17 0.000294191f
Cc_41 VPW:2 VDD:1 0.00229212f
Cc_42 XI2|MMMN1:b VDD:1 0.0017963f
Cc_43 XI2|MMMN1:b VDD:2 0.000614948f
Cc_44 VPW:2 VDD:13 0.000100263f
Cc_45 XI2|MMMN1:b VDD:13 0.000114223f
Cc_46 VPW:4 VDD:13 0.00286092f
Cc_47 VPW:4 VDD:14 0.00179541f
Cc_48 XI2|MMMN1:b VDD:17 0.0003603f
Cc_49 VPW:4 VDD:17 0.0345113f
Cc_50 VPW:5 VDD:17 0.000462857f
Cc_51 XI2|MMMN1:b NEG:1 0.000844578f
Cc_52 XI2|MMMN1:b NEG:9 0.00161557f
Cc_53 XI2|MMMN1:b POS:1 0.00373631f
Cc_54 VPW:5 POS:1 0.00382947f
Cc_55 XI2|MMMN1:b POS:7 0.00172141f
Cc_56 VPW:5 POS:7 0.000217126f
Cc_57 XI2|MMMN1:b POS:9 0.00328131f
Cc_58 VPW:5 POS:9 0.000116612f
Cc_59 XI2|MMMN1:b SW:6 0.000545706f
Cc_60 XI2|MMMN1:b SW:8 0.00219601f
Cc_61 XI2|MMMN1:b SW:9 0.000244314f
Cc_62 VPW:4 SW:10 0.00131585f
Cc_63 XI2|MMMN1:b SW:11 0.00163714f
Cc_64 XI2|MMMN1:b SW:12 0.000365377f
R6 D0_noxref:pos VPW:1 1e-05 $X=0.42 $Y=0.36 $X2=-3.5445 $Y2=0.24
R7 XI2|MMMN1:b VPW:2 1e-05 $X=0.084 $Y=0.12 $X2=-1.7935 $Y2=0.24
R8 D0_noxref:pos VPW:2 1e-05 $X=0.42 $Y=0.36 $X2=-1.7935 $Y2=0.24
R9 VPW:2 VPW:4 1e-05 $X=-1.7935 $Y=0.24 $X2=0.42 $Y2=2.246
R10 XI2|MMMN1:b XI1|MMMN1:b 0.01 $X=0.084 $Y=0.12 $X2=0.42 $Y2=0.12
R11 XI2|MMMN1:b X4|M0_noxref:b 0.01 $X=0.084 $Y=0.12 $X2=0.252 $Y2=0.12
R12 XI2|MMMN1:b X5|M0_noxref:b 0.01 $X=0.084 $Y=0.12 $X2=0.588 $Y2=0.12
R13 XI2|MMMN1:b XI0|MN0:b 0.01 $X=0.084 $Y=0.12 $X2=0.756 $Y2=0.12
R14 XI2|MMMN1:b VPW:5 1e-05 $X=0.084 $Y=0.12 $X2=2.6335 $Y2=0.24
R15 XI2|MMMN1:b D0_noxref:pos 0.01 $X=0.084 $Y=0.12 $X2=0.42 $Y2=0.36
R16 VPW:4 VPW:5 1e-05 $X=0.42 $Y=2.246 $X2=2.6335 $Y2=0.24
R17 D0_noxref:pos VPW:4 1e-05 $X=0.42 $Y=0.36 $X2=0.42 $Y2=2.246
R18 D0_noxref:pos VPW:5 1e-05 $X=0.42 $Y=0.36 $X2=2.6335 $Y2=0.24
R19 D0_noxref:pos VPW:12 1e-05 $X=0.42 $Y=0.36 $X2=4.3845 $Y2=0.24
R20 D0_noxref:pos VPW 1e-05 $X=0.42 $Y=0.36 $X2=0.052 $Y2=0.0
R21 D0_noxref:pos VPW 1e-05 $X=0.42 $Y=0.36 $X2=0.22 $Y2=0.0
R22 D0_noxref:pos VPW 1e-05 $X=0.42 $Y=0.36 $X2=0.383 $Y2=0.0
R23 D0_noxref:pos VPW 1e-05 $X=0.42 $Y=0.36 $X2=0.388 $Y2=0.0
R24 D0_noxref:pos VPW 1e-05 $X=0.42 $Y=0.36 $X2=0.556 $Y2=0.0
R25 D0_noxref:pos VPW 1e-05 $X=0.42 $Y=0.36 $X2=0.72 $Y2=0.0

*|NET SW 0.333901f
*|P (SW B 0.0 0.048 0.242)
*|P (noxref_SW B 0.0 0.047 0.246)
*|I (XI2|MMMP1:g XI2|MMMP1 g B 0.0 0.084 0.36)
*|I (XI2|MMMN1:g XI2|MMMN1 g B 0.0 0.084 0.12)
*|S (SW:6 0.0295 0.24)
*|S (SW:7 0.0695 0.24)
*|S (SW:8 0.048 0.182)
*|S (SW:9 0.084 0.251)
*|S (SW:10 0.084 0.445)
*|S (SW:11 0.084 0.035)
*|S (SW:12 0.084 0.205)
*|S (SW:13 0.084 0.288)
*|S (SW:14 0.084 0.432)
*|S (SW:15 0.084 0.275)
*|S (SW:16 0.084 0.24)
*|S (SW:17 0.084 0.229)
*|S (SW:18 0.084 0.192)
*|S (SW:19 0.084 0.24)
*|S (SW:21 0.067 0.24)
*|S (SW:22 0.084 0.048)
*|S (SW:23 0.048 0.24)
*|S (SW:24 0.0655 0.24)
Cg_65 XI2|MMMP1:g 0 0.000908499f
Cg_66 XI2|MMMN1:g 0 0.000771688f
Cg_67 SW:6 0 0.000448985f
Cg_68 SW:7 0 0.00142094f
Cg_69 SW:8 0 0.0159227f
Cg_70 SW:9 0 0.000525291f
Cg_71 SW:10 0 0.000827547f
Cg_72 SW:11 0 0.000716291f
Cg_73 SW:12 0 0.000875128f
Cc_74 XI2|MMMP1:g noxref_3:3 0.000156846f
Cc_75 XI2|MMMN1:g noxref_3:3 0.016266f
Cc_76 SW:6 noxref_3:3 0.000534039f
Cc_77 SW:7 noxref_3:3 0.00012194f
Cc_78 XI2|MMMP1:g noxref_3:4 0.0157112f
Cc_79 XI2|MMMN1:g noxref_3:4 0.000147625f
Cc_80 SW:7 noxref_3:4 0.00528792f
Cc_81 SW:12 noxref_3:4 0.000100776f
Cc_82 XI2|MMMN1:g noxref_3:18 0.00196863f
Cc_83 XI2|MMMP1:g noxref_3:19 0.00196863f
Cc_84 XI2|MMMP1:g noxref_3:24 0.039493f
Cc_85 SW:9 noxref_3:24 0.00554678f
Cc_86 SW:10 noxref_3:24 0.00256195f
Cc_87 XI2|MMMN1:g noxref_3:25 0.0392725f
Cc_88 SW:11 noxref_3:25 0.00483484f
Cc_89 SW:12 noxref_3:25 0.00232961f
Cc_90 SW:8 noxref_3:26 0.0167014f
Cc_91 XI2|MMMP1:g VSS:1 0.00067587f
Cc_92 XI2|MMMN1:g VSS:1 0.0179568f
Cc_93 SW:6 VSS:1 0.0023823f
Cc_94 SW:7 VSS:1 0.000986483f
Cc_95 SW:8 VSS:1 0.00314272f
Cc_96 SW:9 VSS:1 0.000677649f
Cc_97 SW:12 VSS:1 0.000162391f
Cc_98 SW:11 VSS:13 0.00210784f
Cc_99 XI2|MMMP1:g VSS:15 0.000103029f
Cc_100 XI2|MMMN1:g VSS:15 0.0393772f
Cc_101 SW:11 VSS:15 0.00342699f
Cc_102 SW:12 VSS:15 0.00458297f
Cc_103 SW:11 VSS:17 0.00016157f
Cc_104 XI2|MMMP1:g VDD:1 0.017294f
Cc_105 XI2|MMMN1:g VDD:1 0.00069277f
Cc_106 SW:6 VDD:1 0.00231144f
Cc_107 SW:7 VDD:1 0.000994797f
Cc_108 SW:8 VDD:1 0.00284934f
Cc_109 SW:9 VDD:1 0.000144615f
Cc_110 SW:12 VDD:1 0.00065313f
Cc_111 SW:10 VDD:13 0.00223375f
Cc_112 XI2|MMMP1:g VDD:15 0.0396259f
Cc_113 XI2|MMMN1:g VDD:15 0.000134659f
Cc_114 SW:9 VDD:15 0.00506675f
Cc_115 SW:10 VDD:15 0.00354819f
Cc_116 SW:10 VDD:17 0.000150966f
R26 XI2|MMMP1:g SW:13 540 $X=0.084 $Y=0.36 $X2=0.084 $Y2=0.288
R27 XI2|MMMP1:g SW:14 540 $X=0.084 $Y=0.36 $X2=0.084 $Y2=0.432
R28 XI2|MMMN1:g SW:18 450 $X=0.084 $Y=0.12 $X2=0.084 $Y2=0.192
R29 XI2|MMMN1:g SW:22 450 $X=0.084 $Y=0.12 $X2=0.084 $Y2=0.048
R30 SW:6 SW:23 2.43023 $X=0.0295 $Y=0.24 $X2=0.048 $Y2=0.24
R31 SW:7 SW:19 1.38409 $X=0.0695 $Y=0.24 $X2=0.084 $Y2=0.24
R32 SW:7 SW:21 0.238636 $X=0.0695 $Y=0.24 $X2=0.067 $Y2=0.24
R33 SW SW:8 0.934116 $X=0.048 $Y=0.242 $X2=0.048 $Y2=0.182
R34 SW:9 SW:15 71 $X=0.084 $Y=0.251 $X2=0.084 $Y2=0.275
R35 SW:9 SW:16 32.5417 $X=0.084 $Y=0.251 $X2=0.084 $Y2=0.24
R36 SW:9 SW:19 108.862 $X=0.084 $Y=0.251 $X2=0.084 $Y2=0.24
R37 SW:10 SW:14 38.4583 $X=0.084 $Y=0.445 $X2=0.084 $Y2=0.432
R38 SW:11 SW:22 36.8333 $X=0.084 $Y=0.035 $X2=0.084 $Y2=0.048
R39 SW:12 SW:17 68 $X=0.084 $Y=0.205 $X2=0.084 $Y2=0.229
R40 SW:12 SW:18 36.8333 $X=0.084 $Y=0.205 $X2=0.084 $Y2=0.192
R41 SW:13 SW:15 38.4583 $X=0.084 $Y=0.288 $X2=0.084 $Y2=0.275
R42 SW:16 SW:17 31.1667 $X=0.084 $Y=0.24 $X2=0.084 $Y2=0.229
R43 SW:17 SW:19 108.862 $X=0.084 $Y=0.229 $X2=0.084 $Y2=0.24
R44 SW:21 SW:24 0.197045 $X=0.067 $Y=0.24 $X2=0.0655 $Y2=0.24
R45 SW:23 SW:24 2.29886 $X=0.048 $Y=0.24 $X2=0.0655 $Y2=0.24
R46 SW SW:23 14 $X=0.048 $Y=0.242 $X2=0.048 $Y2=0.24
R47 SW noxref_SW 1e-05 $X=0.048 $Y=0.242 $X2=0.047 $Y2=0.246

*|NET X4|noxref_10 0.341346f
*|I (X4|M1_noxref:g X4|M1_noxref g B 0.0 0.252 0.36)
*|I (X4|M0_noxref:g X4|M0_noxref g B 0.0 0.252 0.12)
*|S (X4|noxref_10:6 0.2295 0.24)
*|S (X4|noxref_10:7 0.252 0.24)
*|S (X4|noxref_10:8 0.252 0.251)
*|S (X4|noxref_10:9 0.252 0.445)
*|S (X4|noxref_10:10 0.252 0.035)
*|S (X4|noxref_10:11 0.252 0.205)
*|S (X4|noxref_10:12 0.252 0.288)
*|S (X4|noxref_10:13 0.252 0.432)
*|S (X4|noxref_10:14 0.252 0.275)
*|S (X4|noxref_10:15 0.252 0.24)
*|S (X4|noxref_10:16 0.252 0.229)
*|S (X4|noxref_10:17 0.252 0.192)
*|S (X4|noxref_10:18 0.252 0.24)
*|S (X4|noxref_10:20 0.252 0.048)
Cg_117 X4|M1_noxref:g 0 3.92052e-25
Cg_118 X4|M0_noxref:g 0 0.000553724f
Cg_119 X4|noxref_10:6 0 0.00127349f
Cg_120 X4|noxref_10:7 0 0.0120659f
Cg_121 X4|noxref_10:8 0 0.000409115f
Cg_122 X4|noxref_10:9 0 0.000617627f
Cg_123 X4|noxref_10:10 0 0.000627881f
Cg_124 X4|noxref_10:11 0 0.000619628f
Cc_125 X4|M0_noxref:g noxref_3:3 0.000232958f
Cc_126 X4|noxref_10:6 noxref_3:3 0.000222132f
Cc_127 X4|noxref_10:8 noxref_3:3 0.000243164f
Cc_128 X4|M0_noxref:g noxref_3:4 0.000236434f
Cc_129 X4|noxref_10:6 noxref_3:4 0.000225447f
Cc_130 X4|noxref_10:8 noxref_3:4 0.000246793f
Cc_131 X4|noxref_10:6 noxref_3:20 0.00316759f
Cc_132 X4|M1_noxref:g noxref_3:24 0.000102326f
Cc_133 X4|noxref_10:8 noxref_3:24 0.000205659f
Cc_134 X4|noxref_10:9 noxref_3:24 0.000286606f
Cc_135 X4|noxref_10:10 noxref_3:25 0.000294908f
Cc_136 X4|noxref_10:11 noxref_3:25 0.000357516f
Cc_137 X4|noxref_10:7 noxref_3:26 0.0068934f
Cc_138 X4|noxref_10:7 noxref_3:27 0.00710446f
Cc_139 X4|noxref_10:7 noxref_3:28 0.00555177f
Cc_140 X4|noxref_10:9 noxref_3:30 0.000121499f
Cc_141 X4|M0_noxref:g VSS:2 0.000208872f
Cc_142 X4|noxref_10:6 VSS:2 0.000186208f
Cc_143 X4|noxref_10:7 VSS:2 0.00175249f
Cc_144 X4|noxref_10:8 VSS:2 0.000225304f
Cc_145 X4|noxref_10:10 VSS:13 0.000138374f
Cc_146 X4|noxref_10:10 VSS:14 0.000342133f
Cc_147 X4|noxref_10:8 VSS:16 0.000104455f
Cc_148 X4|noxref_10:10 VSS:16 0.000977586f
Cc_149 X4|noxref_10:11 VSS:16 0.000252505f
Cc_150 X4|M0_noxref:g VDD:2 0.000211562f
Cc_151 X4|noxref_10:6 VDD:2 0.000188607f
Cc_152 X4|noxref_10:7 VDD:2 0.00170751f
Cc_153 X4|noxref_10:8 VDD:2 0.000228206f
Cc_154 X4|noxref_10:9 VDD:13 0.000139439f
Cc_155 X4|noxref_10:9 VDD:14 0.000334591f
Cc_156 X4|noxref_10:8 VDD:16 0.000358256f
Cc_157 X4|noxref_10:9 VDD:16 0.00104698f
Cc_158 X4|noxref_10:11 VDD:16 0.000115794f
Cc_159 X4|noxref_10:8 XI2|MMMP1:b 0.000247282f
Cc_160 X4|noxref_10:9 XI2|MMMP1:b 0.00036297f
Cc_161 X4|noxref_10:11 XI2|MMMP1:b 0.00016432f
Cc_162 X4|noxref_10:8 XI2|MMMN1:b 0.000259516f
Cc_163 X4|noxref_10:10 XI2|MMMN1:b 0.00144437f
Cc_164 X4|noxref_10:11 XI2|MMMN1:b 0.000283013f
Cc_165 X4|noxref_10:9 VPW:4 0.00106821f
R48 X4|M1_noxref:g X4|noxref_10:12 540 $X=0.252 $Y=0.36 $X2=0.252 $Y2=0.288
R49 X4|M1_noxref:g X4|noxref_10:13 540 $X=0.252 $Y=0.36 $X2=0.252 $Y2=0.432
R50 X4|M0_noxref:g X4|noxref_10:17 450 $X=0.252 $Y=0.12 $X2=0.252 $Y2=0.192
R51 X4|M0_noxref:g X4|noxref_10:20 450 $X=0.252 $Y=0.12 $X2=0.252 $Y2=0.048
R52 X4|noxref_10:6 X4|noxref_10:18 2.14773 $X=0.2295 $Y=0.24 $X2=0.252 $Y2=0.24
R53 X4|noxref_10:7 X4|noxref_10:18 14 $X=0.252 $Y=0.24 $X2=0.252 $Y2=0.24
R54 X4|noxref_10:8 X4|noxref_10:14 71 $X=0.252 $Y=0.251 $X2=0.252 $Y2=0.275
R55 X4|noxref_10:8 X4|noxref_10:15 32.5417 $X=0.252 $Y=0.251 $X2=0.252 $Y2=0.24
R56 X4|noxref_10:8 X4|noxref_10:18 108.862 $X=0.252 $Y=0.251 $X2=0.252 $Y2=0.24
R57 X4|noxref_10:9 X4|noxref_10:13 38.4583 $X=0.252 $Y=0.445 $X2=0.252 $Y2=0.432
R58 X4|noxref_10:10 X4|noxref_10:20 36.8333 $X=0.252 $Y=0.035 $X2=0.252
+ $Y2=0.048
R59 X4|noxref_10:11 X4|noxref_10:16 68 $X=0.252 $Y=0.205 $X2=0.252 $Y2=0.229
R60 X4|noxref_10:11 X4|noxref_10:17 36.8333 $X=0.252 $Y=0.205 $X2=0.252
+ $Y2=0.192
R61 X4|noxref_10:12 X4|noxref_10:14 38.4583 $X=0.252 $Y=0.288 $X2=0.252
+ $Y2=0.275
R62 X4|noxref_10:15 X4|noxref_10:16 31.1667 $X=0.252 $Y=0.24 $X2=0.252 $Y2=0.229
R63 X4|noxref_10:16 X4|noxref_10:18 108.862 $X=0.252 $Y=0.229 $X2=0.252 $Y2=0.24

*|NET X4|noxref_11 0.125103f
*|I (X4|M0_noxref:s X4|M0_noxref s B 0.0 0.2401 0.12)
*|S (X4|noxref_11:1 0.21 0.0558)
*|S (X4|noxref_11:6 0.21 0.131)
*|S (X4|noxref_11:7 0.1895 0.12)
*|S (X4|noxref_11:12 0.21 0.072)
*|S (X4|noxref_11:13 0.21 0.0818)
*|S (X4|noxref_11:14 0.21 0.131)
*|S (X4|noxref_11:15 0.21 0.1855)
Cg_166 X4|noxref_11:1 0 0.00415981f
Cg_167 X4|noxref_11:6 0 0.00132944f
Cc_168 X4|noxref_11:1 noxref_3:3 0.00649663f
Cc_169 X4|noxref_11:6 noxref_3:3 0.000151442f
Cc_170 X4|noxref_11:7 noxref_3:3 0.000630976f
Cc_171 X4|noxref_11:1 noxref_3:4 0.00437631f
Cc_172 X4|noxref_11:6 noxref_3:4 0.000153702f
Cc_173 X4|noxref_11:7 noxref_3:4 0.000640392f
Cc_174 X4|noxref_11:6 noxref_3:18 0.00592197f
Cc_175 X4|noxref_11:1 noxref_3:24 0.0008505f
Cc_176 X4|noxref_11:7 noxref_3:24 0.000239041f
Cc_177 X4|noxref_11:1 noxref_3:25 0.000609997f
Cc_178 X4|noxref_11:7 noxref_3:25 0.007892f
Cc_179 X4|noxref_11:6 noxref_3:26 0.000823047f
Cc_180 X4|noxref_11:1 VSS:1 0.000105227f
Cc_181 X4|noxref_11:6 VSS:13 0.0003415f
Cc_182 X4|noxref_11:6 VSS:14 0.000156687f
Cc_183 X4|noxref_11:7 VSS:16 0.00024139f
Cc_184 X4|noxref_11:1 VSS:17 0.000877984f
Cc_185 X4|noxref_11:6 VSS:17 0.00252114f
Cc_186 X4|noxref_11:1 X4|M0_noxref:g 0.0164749f
Cc_187 X4|noxref_11:6 X4|M0_noxref:g 0.00372421f
Cc_188 X4|noxref_11:7 X4|M0_noxref:g 0.0392725f
Cc_189 X4|noxref_11:1 X4|noxref_10:6 0.00318702f
Cc_190 X4|noxref_11:6 X4|noxref_10:6 0.000160777f
Cc_191 X4|noxref_11:6 X4|noxref_10:7 0.00147327f
Cc_192 X4|noxref_11:1 X4|noxref_10:8 0.000650739f
Cc_193 X4|noxref_11:7 X4|noxref_10:10 0.00240753f
Cc_194 X4|noxref_11:7 X4|noxref_10:11 0.00427677f
R64 X4|noxref_11:1 X4|noxref_11:12 3.04417 $X=0.21 $Y=0.0557 $X2=0.21 $Y2=0.072
R65 X4|noxref_11:6 X4|noxref_11:14 9.01666 $X=0.21 $Y=0.131 $X2=0.21 $Y2=0.131
R66 X4|M0_noxref:s X4|noxref_11:12 220.5 $X=0.2401 $Y=0.12 $X2=0.21 $Y2=0.072
R67 X4|M0_noxref:s X4|noxref_11:14 220.5 $X=0.2401 $Y=0.12 $X2=0.21 $Y2=0.131
R68 X4|M0_noxref:s X4|noxref_11:15 220.5 $X=0.2401 $Y=0.12 $X2=0.21 $Y2=0.1855
R69 X4|noxref_11:12 X4|noxref_11:13 1.8265 $X=0.21 $Y=0.072 $X2=0.21 $Y2=0.0817
R70 X4|noxref_11:13 X4|noxref_11:14 9.22617 $X=0.21 $Y=0.0817 $X2=0.21 $Y2=0.131
R71 X4|noxref_11:14 X4|noxref_11:15 10.2097 $X=0.21 $Y=0.131 $X2=0.21 $Y2=0.1855
R72 X4|noxref_11:7 X4|M0_noxref:s 1e-05 $X=0.1895 $Y=0.12 $X2=0.2401 $Y2=0.12

*|NET X4|noxref_14 0.127526f
*|I (X4|M1_noxref:d X4|M1_noxref d B 0.0 0.2639 0.36)
*|S (X4|noxref_14:1 0.294 0.2945)
*|S (X4|noxref_14:6 0.294 0.349)
*|S (X4|noxref_14:7 0.273 0.36)
*|S (X4|noxref_14:9 0.294 0.36)
*|S (X4|noxref_14:12 0.294 0.349)
*|S (X4|noxref_14:13 0.294 0.3982)
*|S (X4|noxref_14:14 0.294 0.408)
Cg_195 X4|noxref_14:1 0 0.00298291f
Cg_196 X4|noxref_14:6 0 0.00186672f
Cc_197 X4|noxref_14:1 XI1|MMMP1:g 0.000309411f
Cc_198 X4|noxref_14:7 XI1|MMMP1:g 0.000104355f
Cc_199 X4|noxref_14:1 XI1|MMMN1:g 0.000203957f
Cc_200 X4|noxref_14:1 noxref_3:20 0.000686062f
Cc_201 X4|noxref_14:7 noxref_3:24 0.000101732f
Cc_202 X4|noxref_14:6 noxref_3:27 0.00198915f
Cc_203 X4|noxref_14:1 noxref_3:29 0.000284296f
Cc_204 X4|noxref_14:7 noxref_3:30 0.000152834f
Cc_205 X4|noxref_14:1 VSS:2 0.00411621f
Cc_206 X4|noxref_14:6 VSS:2 0.000125089f
Cc_207 X4|noxref_14:7 VSS:2 0.000848676f
Cc_208 X4|noxref_14:1 VSS:14 0.000187129f
Cc_209 X4|noxref_14:1 VSS:16 0.000598222f
Cc_210 X4|noxref_14:7 VSS:16 0.000249419f
Cc_211 X4|noxref_14:1 VDD:2 0.00859677f
Cc_212 X4|noxref_14:6 VDD:2 0.000126701f
Cc_213 X4|noxref_14:7 VDD:2 0.000859607f
Cc_214 X4|noxref_14:1 VDD:14 0.00275247f
Cc_215 X4|noxref_14:6 VDD:14 0.00362505f
Cc_216 X4|noxref_14:1 VDD:16 0.000777827f
Cc_217 X4|noxref_14:7 VDD:16 0.00816713f
Cc_218 X4|noxref_14:6 VDD:17 0.00140158f
Cc_219 X4|noxref_14:1 X4|M1_noxref:g 0.0157282f
Cc_220 X4|noxref_14:6 X4|M1_noxref:g 0.00384157f
Cc_221 X4|noxref_14:7 X4|M1_noxref:g 0.039493f
Cc_222 X4|noxref_14:1 X4|M0_noxref:g 0.000206006f
Cc_223 X4|noxref_14:1 X4|noxref_10:6 0.00312423f
Cc_224 X4|noxref_14:6 X4|noxref_10:6 0.000153533f
Cc_225 X4|noxref_14:6 X4|noxref_10:7 0.00147316f
Cc_226 X4|noxref_14:1 X4|noxref_10:8 0.000222213f
Cc_227 X4|noxref_14:7 X4|noxref_10:8 0.00480593f
Cc_228 X4|noxref_14:7 X4|noxref_10:9 0.00252362f
Cc_229 X4|noxref_14:1 X4|noxref_10:11 0.000489931f
Cc_230 X4|noxref_14:1 X4|noxref_12:1 0.0017661f
Cc_231 X4|noxref_14:6 X4|noxref_12:6 0.00626333f
Cc_232 X4|noxref_14:1 X4|noxref_13:1 0.00398619f
Cc_233 X4|noxref_14:6 X4|noxref_13:1 0.000121138f
Cc_234 X4|noxref_14:7 X4|noxref_13:1 0.00103115f
Cc_235 X4|noxref_14:1 X4|noxref_13:6 0.000123373f
Cc_236 X4|noxref_14:1 X4|noxref_13:7 0.000751297f
Cc_237 X4|noxref_14:7 X4|noxref_13:7 0.000308738f
R73 X4|noxref_14:1 X4|noxref_14:12 10.2097 $X=0.294 $Y=0.2945 $X2=0.294
+ $Y2=0.349
R74 X4|noxref_14:1 X4|noxref_14:9 430.497 $X=0.294 $Y=0.2945 $X2=0.294 $Y2=0.36
R75 X4|noxref_14:6 X4|noxref_14:12 9.01666 $X=0.294 $Y=0.349 $X2=0.294 $Y2=0.349
R76 X4|noxref_14:9 X4|noxref_14:12 430.497 $X=0.294 $Y=0.36 $X2=0.294 $Y2=0.349
R77 X4|noxref_14:9 X4|noxref_14:14 430.497 $X=0.294 $Y=0.36 $X2=0.294 $Y2=0.408
R78 X4|noxref_14:12 X4|noxref_14:13 9.22617 $X=0.294 $Y=0.349 $X2=0.294
+ $Y2=0.3982
R79 X4|noxref_14:13 X4|noxref_14:14 1.8265 $X=0.294 $Y=0.3982 $X2=0.294
+ $Y2=0.408
R80 X4|noxref_14:7 X4|noxref_14:9 1e-05 $X=0.273 $Y=0.36 $X2=0.294 $Y2=0.36
R81 X4|M1_noxref:d X4|noxref_14:7 1e-05 $X=0.2638 $Y=0.36 $X2=0.273 $Y2=0.36

*|NET NET7 0.513774f
*|P (NET6 B 0.0 0.454 0.24)
*|P (NET7 B 0.0 0.72 0.338)
*|I (XI0|MN0:g XI0|MN0 g B 0.0 0.756 0.12)
*|I (XI1|MMMP1:d XI1|MMMP1 d B 0.0 0.4319 0.36)
*|I (XI1|MMMN1:d XI1|MMMN1 d B 0.0 0.4319 0.12)
*|S (NET7:2 0.462 0.0558)
*|S (NET7:3 0.462 0.2957)
*|S (NET7:16 0.455 0.123)
*|S (NET7:17 0.455 0.357)
*|S (NET7:18 0.7015 0.336)
*|S (NET7:19 0.756 0.336)
*|S (NET7:22 0.441 0.36)
*|S (NET7:23 0.441 0.12)
*|S (NET7:24 0.454 0.339)
*|S (NET7:25 0.693 0.3405)
*|S (NET7:26 0.419 0.347)
*|S (NET7:27 0.756 0.277)
*|S (NET7:28 0.756 0.035)
*|S (NET7:29 0.756 0.216)
*|S (NET7:31 0.462 0.36)
*|S (NET7:34 0.462 0.312)
*|S (NET7:35 0.462 0.3187)
*|S (NET7:36 0.462 0.357)
*|S (NET7:37 0.462 0.3982)
*|S (NET7:38 0.462 0.408)
*|S (NET7:40 0.454 0.1908)
*|S (NET7:42 0.454 0.2858)
*|S (NET7:43 0.454 0.3345)
*|S (NET7:44 0.454 0.141)
*|S (NET7:46 0.454 0.118)
*|S (NET7:47 0.454 0.137)
*|S (NET7:49 0.454 0.359)
*|S (NET7:51 0.4315 0.347)
*|S (NET7:52 0.454 0.347)
*|S (NET7:53 0.5825 0.347)
*|S (NET7:54 0.711 0.347)
*|S (NET7:56 0.462 0.072)
*|S (NET7:57 0.462 0.0818)
*|S (NET7:58 0.462 0.123)
*|S (NET7:59 0.462 0.1612)
*|S (NET7:60 0.462 0.168)
*|S (NET7:68 0.462 0.12)
*|S (NET7:71 0.72 0.336)
*|S (NET7:72 0.7375 0.336)
*|S (NET7:73 0.739 0.336)
*|S (NET7:74 0.756 0.336)
*|S (NET7:76 0.756 0.24)
*|S (NET7:77 0.756 0.192)
*|S (NET7:78 0.756 0.048)
Cg_238 XI0|MN0:g 0 0.000933403f
Cg_239 NET7:2 0 0.00174679f
Cg_240 NET7:3 0 0.00156307f
Cg_241 NET7:16 0 0.00106701f
Cg_242 NET7:17 0 0.00105414f
Cg_243 NET7:18 0 0.000552934f
Cg_244 NET7:19 0 0.000568061f
Cg_245 NET7:24 0 0.0100843f
Cg_246 NET7:25 0 0.0119343f
Cg_247 NET7:26 0 0.026107f
Cg_248 NET7:27 0 0.000271866f
Cg_249 NET7:28 0 0.000327511f
Cg_250 NET7:29 0 0.000285639f
R82 XI0|MN0:g NET7:77 450 $X=0.756 $Y=0.12 $X2=0.756 $Y2=0.192
R83 XI0|MN0:g NET7:78 450 $X=0.756 $Y=0.12 $X2=0.756 $Y2=0.048
R84 NET7:2 NET7:56 3.04417 $X=0.462 $Y=0.0557 $X2=0.462 $Y2=0.072
R85 NET7:3 NET7:34 3.04417 $X=0.462 $Y=0.2957 $X2=0.462 $Y2=0.312
R86 NET7:16 NET7:46 14 $X=0.455 $Y=0.123 $X2=0.454 $Y2=0.118
R87 NET7:16 NET7:58 11.9632 $X=0.455 $Y=0.123 $X2=0.462 $Y2=0.123
R88 NET7:17 NET7:36 11.9632 $X=0.455 $Y=0.357 $X2=0.462 $Y2=0.357
R89 NET7:17 NET7:49 14 $X=0.455 $Y=0.357 $X2=0.454 $Y2=0.359
R90 NET7:18 NET7:71 2.43023 $X=0.7015 $Y=0.336 $X2=0.72 $Y2=0.336
R91 NET7:19 NET7:73 1.62273 $X=0.756 $Y=0.336 $X2=0.739 $Y2=0.336
R92 NET7:19 NET7:74 54.4309 $X=0.756 $Y=0.336 $X2=0.756 $Y2=0.336
R93 NET7:24 NET7:43 0.0724745 $X=0.454 $Y=0.339 $X2=0.454 $Y2=0.3345
R94 NET7:24 NET7:49 0.254865 $X=0.454 $Y=0.339 $X2=0.454 $Y2=0.359
R95 NET7 NET7:25 0.139745 $X=0.72 $Y=0.338 $X2=0.693 $Y2=0.3405
R96 NET7:26 NET7:51 0.166193 $X=0.419 $Y=0.347 $X2=0.4315 $Y2=0.347
R97 NET7:27 NET7:74 174.542 $X=0.756 $Y=0.277 $X2=0.756 $Y2=0.336
R98 NET7:27 NET7:76 109.458 $X=0.756 $Y=0.277 $X2=0.756 $Y2=0.24
R99 NET7:28 NET7:78 36.8333 $X=0.756 $Y=0.035 $X2=0.756 $Y2=0.048
R100 NET7:29 NET7:76 68 $X=0.756 $Y=0.216 $X2=0.756 $Y2=0.24
R101 NET7:29 NET7:77 68 $X=0.756 $Y=0.216 $X2=0.756 $Y2=0.192
R102 NET7:31 NET7:34 430.497 $X=0.462 $Y=0.36 $X2=0.462 $Y2=0.312
R103 NET7:31 NET7:36 430.497 $X=0.462 $Y=0.36 $X2=0.462 $Y2=0.357
R104 NET7:31 NET7:38 430.497 $X=0.462 $Y=0.36 $X2=0.462 $Y2=0.408
R105 NET7:34 NET7:35 1.2645 $X=0.462 $Y=0.312 $X2=0.462 $Y2=0.3187
R106 NET7:35 NET7:36 7.1655 $X=0.462 $Y=0.3187 $X2=0.462 $Y2=0.357
R107 NET7:36 NET7:37 7.7275 $X=0.462 $Y=0.357 $X2=0.462 $Y2=0.3982
R108 NET7:37 NET7:38 1.8265 $X=0.462 $Y=0.3982 $X2=0.462 $Y2=0.408
R109 NET6 NET7:40 0.793193 $X=0.454 $Y=0.24 $X2=0.454 $Y2=0.1907
R110 NET7:40 NET7:44 0.801246 $X=0.454 $Y=0.1907 $X2=0.454 $Y2=0.141
R111 NET6 NET7:42 0.736824 $X=0.454 $Y=0.24 $X2=0.454 $Y2=0.2857
R112 NET7:42 NET7:43 0.78514 $X=0.454 $Y=0.2857 $X2=0.454 $Y2=0.3345
R113 NET7:44 NET7:47 0.0538043 $X=0.454 $Y=0.141 $X2=0.454 $Y2=0.137
R114 NET7:46 NET7:47 0.238759 $X=0.454 $Y=0.118 $X2=0.454 $Y2=0.137
R115 NET7:49 NET7:52 14 $X=0.454 $Y=0.359 $X2=0.454 $Y2=0.347
R116 NET7:51 NET7:52 0.282741 $X=0.4315 $Y=0.347 $X2=0.454 $Y2=0.347
R117 NET7:52 NET7:53 1.61477 $X=0.454 $Y=0.347 $X2=0.5825 $Y2=0.347
R118 NET7:53 NET7:54 1.61477 $X=0.5825 $Y=0.347 $X2=0.711 $Y2=0.347
R119 NET7 NET7:54 14 $X=0.72 $Y=0.338 $X2=0.711 $Y2=0.347
R120 NET7:56 NET7:57 1.8265 $X=0.462 $Y=0.072 $X2=0.462 $Y2=0.0817
R121 NET7:56 NET7:68 220.5 $X=0.462 $Y=0.072 $X2=0.462 $Y2=0.12
R122 NET7:57 NET7:58 7.7275 $X=0.462 $Y=0.0817 $X2=0.462 $Y2=0.123
R123 NET7:58 NET7:59 7.1655 $X=0.462 $Y=0.123 $X2=0.462 $Y2=0.1612
R124 NET7:58 NET7:68 220.5 $X=0.462 $Y=0.123 $X2=0.462 $Y2=0.12
R125 NET7:59 NET7:60 1.2645 $X=0.462 $Y=0.1612 $X2=0.462 $Y2=0.168
R126 NET7:60 NET7:68 220.5 $X=0.462 $Y=0.168 $X2=0.462 $Y2=0.12
R127 NET7 NET7:71 14 $X=0.72 $Y=0.338 $X2=0.72 $Y2=0.336
R128 NET7:71 NET7:72 2.29886 $X=0.72 $Y=0.336 $X2=0.7375 $Y2=0.336
R129 NET7:72 NET7:73 0.197045 $X=0.7375 $Y=0.336 $X2=0.739 $Y2=0.336
R130 NET7:22 NET7:31 1e-05 $X=0.441 $Y=0.36 $X2=0.462 $Y2=0.36
R131 XI1|MMMP1:d NET7:22 1e-05 $X=0.4318 $Y=0.36 $X2=0.441 $Y2=0.36
R132 NET7:23 NET7:68 1e-05 $X=0.441 $Y=0.12 $X2=0.462 $Y2=0.12
R133 XI1|MMMN1:d NET7:23 1e-05 $X=0.4318 $Y=0.12 $X2=0.441 $Y2=0.12

*|NET noxref_3 0.639104f
*|P (NET6 B 0.0 0.118 0.24)
*|P (SW B 0.0 0.384 0.242)
*|I (XI1|MMMP1:g XI1|MMMP1 g B 0.0 0.42 0.36)
*|I (XI1|MMMN1:g XI1|MMMN1 g B 0.0 0.42 0.12)
*|I (XI2|MMMP1:d XI2|MMMP1 d B 0.0 0.0959 0.36)
*|I (XI2|MMMN1:d XI2|MMMN1 d B 0.0 0.0959 0.12)
*|S (noxref_3:3 0.126 0.0558)
*|S (noxref_3:4 0.126 0.2957)
*|S (noxref_3:18 0.119 0.123)
*|S (noxref_3:19 0.119 0.357)
*|S (noxref_3:20 0.3655 0.24)
*|S (noxref_3:21 0.4055 0.24)
*|S (noxref_3:24 0.105 0.36)
*|S (noxref_3:25 0.105 0.12)
*|S (noxref_3:26 0.118 0.339)
*|S (noxref_3:27 0.384 0.183)
*|S (noxref_3:28 0.0895 0.24)
*|S (noxref_3:29 0.42 0.251)
*|S (noxref_3:30 0.42 0.445)
*|S (noxref_3:31 0.42 0.035)
*|S (noxref_3:32 0.42 0.205)
*|S (noxref_3:34 0.126 0.36)
*|S (noxref_3:37 0.126 0.312)
*|S (noxref_3:38 0.126 0.3187)
*|S (noxref_3:39 0.126 0.357)
*|S (noxref_3:40 0.126 0.3982)
*|S (noxref_3:41 0.126 0.408)
*|S (noxref_3:43 0.118 0.183)
*|S (noxref_3:45 0.118 0.297)
*|S (noxref_3:46 0.118 0.141)
*|S (noxref_3:48 0.118 0.118)
*|S (noxref_3:49 0.118 0.137)
*|S (noxref_3:50 0.118 0.343)
*|S (noxref_3:51 0.118 0.362)
*|S (noxref_3:53 0.118 0.24)
*|S (noxref_3:54 0.251 0.24)
*|S (noxref_3:55 0.384 0.24)
*|S (noxref_3:62 0.126 0.072)
*|S (noxref_3:63 0.126 0.0818)
*|S (noxref_3:64 0.126 0.123)
*|S (noxref_3:65 0.126 0.1612)
*|S (noxref_3:66 0.126 0.168)
*|S (noxref_3:68 0.384 0.24)
*|S (noxref_3:69 0.4015 0.24)
*|S (noxref_3:70 0.403 0.24)
*|S (noxref_3:72 0.126 0.12)
*|S (noxref_3:75 0.42 0.24)
*|S (noxref_3:77 0.42 0.275)
*|S (noxref_3:78 0.42 0.288)
*|S (noxref_3:79 0.42 0.24)
*|S (noxref_3:80 0.42 0.229)
*|S (noxref_3:81 0.42 0.192)
*|S (noxref_3:82 0.42 0.432)
*|S (noxref_3:83 0.42 0.048)
Cg_251 XI1|MMMP1:g 0 0.000677882f
Cg_252 XI1|MMMN1:g 0 0.000980305f
Cg_253 noxref_3:3 0 0.00107731f
Cg_254 noxref_3:4 0 0.000992615f
Cg_255 noxref_3:18 0 0.000283799f
Cg_256 noxref_3:19 0 0.000283799f
Cg_257 noxref_3:20 0 0.00063366f
Cg_258 noxref_3:21 0 0.00164611f
Cg_259 noxref_3:26 0 0.0116254f
Cg_260 noxref_3:27 0 0.00316201f
Cg_261 noxref_3:28 0 0.034458f
Cg_262 noxref_3:29 0 0.000740824f
Cg_263 noxref_3:30 0 0.000723427f
Cg_264 noxref_3:31 0 0.000754448f
Cg_265 noxref_3:32 0 0.00100642f
Cc_266 XI1|MMMP1:g NET7:2 0.000150488f
Cc_267 XI1|MMMN1:g NET7:2 0.0162819f
Cc_268 noxref_3:20 NET7:2 0.000534414f
Cc_269 noxref_3:21 NET7:2 0.000121171f
Cc_270 XI1|MMMP1:g NET7:3 0.0157092f
Cc_271 XI1|MMMN1:g NET7:3 0.000147865f
Cc_272 noxref_3:21 NET7:3 0.00523518f
Cc_273 noxref_3:32 NET7:3 0.00010094f
Cc_274 XI1|MMMN1:g NET7:16 0.00186482f
Cc_275 XI1|MMMP1:g NET7:17 0.00180732f
Cc_276 XI1|MMMP1:g NET7:22 0.039493f
Cc_277 noxref_3:29 NET7:22 0.00532764f
Cc_278 noxref_3:30 NET7:22 0.00251279f
Cc_279 XI1|MMMN1:g NET7:23 0.0392725f
Cc_280 noxref_3:31 NET7:23 0.00244067f
Cc_281 noxref_3:32 NET7:23 0.00472969f
Cc_282 noxref_3:26 NET7:24 0.00163226f
Cc_283 noxref_3:27 NET7:24 0.0171471f
Cc_284 noxref_3:28 NET7:26 0.00113553f
R134 XI1|MMMP1:g noxref_3:78 540 $X=0.42 $Y=0.36 $X2=0.42 $Y2=0.288
R135 XI1|MMMP1:g noxref_3:82 540 $X=0.42 $Y=0.36 $X2=0.42 $Y2=0.432
R136 XI1|MMMN1:g noxref_3:81 450 $X=0.42 $Y=0.12 $X2=0.42 $Y2=0.192
R137 XI1|MMMN1:g noxref_3:83 450 $X=0.42 $Y=0.12 $X2=0.42 $Y2=0.048
R138 noxref_3:3 noxref_3:62 3.04417 $X=0.126 $Y=0.0557 $X2=0.126 $Y2=0.072
R139 noxref_3:4 noxref_3:37 3.04417 $X=0.126 $Y=0.2957 $X2=0.126 $Y2=0.312
R140 noxref_3:18 noxref_3:48 14 $X=0.119 $Y=0.123 $X2=0.118 $Y2=0.118
R141 noxref_3:18 noxref_3:64 11.9632 $X=0.119 $Y=0.123 $X2=0.126 $Y2=0.123
R142 noxref_3:19 noxref_3:39 11.9632 $X=0.119 $Y=0.357 $X2=0.126 $Y2=0.357
R143 noxref_3:19 noxref_3:51 14 $X=0.119 $Y=0.357 $X2=0.118 $Y2=0.362
R144 noxref_3:20 noxref_3:68 2.43023 $X=0.3655 $Y=0.24 $X2=0.384 $Y2=0.24
R145 noxref_3:21 noxref_3:75 1.38409 $X=0.4055 $Y=0.24 $X2=0.42 $Y2=0.24
R146 noxref_3:21 noxref_3:70 0.238636 $X=0.4055 $Y=0.24 $X2=0.403 $Y2=0.24
R147 noxref_3:26 noxref_3:45 0.676429 $X=0.118 $Y=0.339 $X2=0.118 $Y2=0.297
R148 noxref_3:26 noxref_3:50 0.0538043 $X=0.118 $Y=0.339 $X2=0.118 $Y2=0.343
R149 SW noxref_3:27 0.91801 $X=0.384 $Y=0.242 $X2=0.384 $Y2=0.183
R150 noxref_3:28 noxref_3:53 0.358139 $X=0.0895 $Y=0.24 $X2=0.118 $Y2=0.24
R151 noxref_3:29 noxref_3:77 71 $X=0.42 $Y=0.251 $X2=0.42 $Y2=0.275
R152 noxref_3:29 noxref_3:79 32.5417 $X=0.42 $Y=0.251 $X2=0.42 $Y2=0.24
R153 noxref_3:29 noxref_3:75 108.862 $X=0.42 $Y=0.251 $X2=0.42 $Y2=0.24
R154 noxref_3:30 noxref_3:82 38.4583 $X=0.42 $Y=0.445 $X2=0.42 $Y2=0.432
R155 noxref_3:31 noxref_3:83 36.8333 $X=0.42 $Y=0.035 $X2=0.42 $Y2=0.048
R156 noxref_3:32 noxref_3:80 68 $X=0.42 $Y=0.205 $X2=0.42 $Y2=0.229
R157 noxref_3:32 noxref_3:81 36.8333 $X=0.42 $Y=0.205 $X2=0.42 $Y2=0.192
R158 noxref_3:34 noxref_3:37 430.497 $X=0.126 $Y=0.36 $X2=0.126 $Y2=0.312
R159 noxref_3:34 noxref_3:39 430.497 $X=0.126 $Y=0.36 $X2=0.126 $Y2=0.357
R160 noxref_3:34 noxref_3:41 430.497 $X=0.126 $Y=0.36 $X2=0.126 $Y2=0.408
R161 noxref_3:37 noxref_3:38 1.2645 $X=0.126 $Y=0.312 $X2=0.126 $Y2=0.3187
R162 noxref_3:38 noxref_3:39 7.1655 $X=0.126 $Y=0.3187 $X2=0.126 $Y2=0.357
R163 noxref_3:39 noxref_3:40 7.7275 $X=0.126 $Y=0.357 $X2=0.126 $Y2=0.3982
R164 noxref_3:40 noxref_3:41 1.8265 $X=0.126 $Y=0.3982 $X2=0.126 $Y2=0.408
R165 NET6 noxref_3:43 0.91801 $X=0.118 $Y=0.24 $X2=0.118 $Y2=0.183
R166 noxref_3:43 noxref_3:46 0.676429 $X=0.118 $Y=0.183 $X2=0.118 $Y2=0.141
R167 NET6 noxref_3:45 0.91801 $X=0.118 $Y=0.24 $X2=0.118 $Y2=0.297
R168 NET6 noxref_3:53 14 $X=0.118 $Y=0.24 $X2=0.118 $Y2=0.24
R169 noxref_3:46 noxref_3:49 0.0538043 $X=0.118 $Y=0.141 $X2=0.118 $Y2=0.137
R170 noxref_3:48 noxref_3:49 0.238759 $X=0.118 $Y=0.118 $X2=0.118 $Y2=0.137
R171 noxref_3:50 noxref_3:51 0.238759 $X=0.118 $Y=0.343 $X2=0.118 $Y2=0.362
R172 noxref_3:53 noxref_3:54 1.67132 $X=0.118 $Y=0.24 $X2=0.251 $Y2=0.24
R173 noxref_3:54 noxref_3:55 1.67132 $X=0.251 $Y=0.24 $X2=0.384 $Y2=0.24
R174 SW noxref_3:55 14 $X=0.384 $Y=0.242 $X2=0.384 $Y2=0.24
R175 SW noxref_3:68 14 $X=0.384 $Y=0.242 $X2=0.384 $Y2=0.24
R176 noxref_3:62 noxref_3:63 1.8265 $X=0.126 $Y=0.072 $X2=0.126 $Y2=0.0817
R177 noxref_3:62 noxref_3:72 220.5 $X=0.126 $Y=0.072 $X2=0.126 $Y2=0.12
R178 noxref_3:63 noxref_3:64 7.7275 $X=0.126 $Y=0.0817 $X2=0.126 $Y2=0.123
R179 noxref_3:64 noxref_3:65 7.1655 $X=0.126 $Y=0.123 $X2=0.126 $Y2=0.1612
R180 noxref_3:64 noxref_3:72 220.5 $X=0.126 $Y=0.123 $X2=0.126 $Y2=0.12
R181 noxref_3:65 noxref_3:66 1.2645 $X=0.126 $Y=0.1612 $X2=0.126 $Y2=0.168