*|DSPF	1.5
*|DESIGN	MOM2
*|DATE	"Fri Dec 28 2018"
*|VENDOR	"Mentor Graphics Corporation"
*|PROGRAM	"Calibre xACT"
*|VERSION	"v2018.1_16.11"
*|DIVIDER	|
*|DELIMITER	:
* Corner Name: 14lpp_13M_3Mx_2Cx_4Kx_2Hx_2Gx_LB_nominal_detailed_25
* Nominal Temperature: 25C
* Circuit Temperature: 25C
* 

* Integrated TICER reduction is not enabled.
* SHORT DELAY THRESHOLD: 2e-15
* Fill Mode: NF
* PEX REDUCE CC ABSOLUTE : 1
* PEX REDUCE CC RELATIVE : 0.01
* Delta transform mode : 344834


.subckt MOM2 VSS VDD CB CT VNW VPW
*
* VSS VSS
* VDD VDD
* CB CB
* CT CT
* VNW VNW
* VPW VPW
*
*|GROUND_NET 0
*
* Net Section
*


*|NET VPW 0.301289f
*|P (VPW B 0.0 0.052 0.0)
*|I (XI3|MMMN4:b XI3|MMMN4 b B 0.0 0.084 0.12)
*|I (XI3|MMMN4@2:b XI3|MMMN4@2 b B 0.0 0.168 0.12)
*|I (XI3|MMMN1:b XI3|MMMN1 b B 0.0 0.252 0.12)
*|I (XI3|MMMN2:b XI3|MMMN2 b B 0.0 0.336 0.12)
*|I (XI3|MMMN3:b XI3|MMMN3 b B 0.0 0.42 0.12)
*|I (XI2|MMMN4:b XI2|MMMN4 b B 0.0 0.588 0.12)
*|I (XI2|MMMN4@2:b XI2|MMMN4@2 b B 0.0 0.672 0.12)
*|I (XI2|MMMN1:b XI2|MMMN1 b B 0.0 0.756 0.12)
*|I (XI2|MMMN2:b XI2|MMMN2 b B 0.0 0.84 0.12)
*|I (XI2|MMMN3:b XI2|MMMN3 b B 0.0 0.924 0.12)
*|I (D0_noxref:pos D0_noxref pos B 0.0 0.504 0.36)
*|S (VPW:1 -3.5445 0.24)
*|S (VPW:2 -1.7935 0.24)
*|S (VPW:4 0.504 2.246)
*|S (VPW:5 2.8015 0.24)
*|S (VPW:17 4.5525 0.24)
Cc_1 VPW:2 VSS:1 0.00162375f
Cc_2 XI3|MMMN4:b VSS:1 0.0025893f
Cc_3 XI3|MMMN4:b VSS:4 0.00253942f
Cc_4 VPW:5 VSS:4 0.00164964f
Cc_5 VPW:2 VSS:61 0.000100703f
Cc_6 XI3|MMMN4:b VSS:61 0.0034497f
Cc_7 XI3|MMMN4:b VSS:62 0.00162543f
Cc_8 XI3|MMMN4:b VSS:63 0.00178734f
Cc_9 XI3|MMMN4:b VSS:64 0.00175586f
Cc_10 XI3|MMMN4:b VSS:65 0.00161084f
Cc_11 XI3|MMMN4:b VSS:66 0.0015666f
Cc_12 XI3|MMMN4:b VSS:67 0.00154134f
Cc_13 XI3|MMMN4:b VSS:68 0.00178734f
Cc_14 XI3|MMMN4:b VSS:69 0.00184004f
Cc_15 XI3|MMMN4:b VSS:70 0.00353602f
Cc_16 VPW:5 VSS:70 0.000103281f
Cc_17 XI3|MMMN4:b VSS:81 0.0284991f
Cc_18 VPW:2 VDD:1 0.00231255f
Cc_19 XI3|MMMN4:b VDD:1 0.00178075f
Cc_20 XI3|MMMN4:b VDD:4 0.00181002f
Cc_21 VPW:5 VDD:4 0.00227226f
Cc_22 VPW:2 VDD:61 0.000101376f
Cc_23 XI3|MMMN4:b VDD:61 0.000110643f
Cc_24 VPW:4 VDD:61 0.00314353f
Cc_25 VPW:4 VDD:62 0.00149615f
Cc_26 VPW:4 VDD:63 0.00131593f
Cc_27 VPW:4 VDD:64 0.00129718f
Cc_28 VPW:4 VDD:65 0.00131911f
Cc_29 VPW:4 VDD:66 0.00153033f
Cc_30 VPW:4 VDD:67 0.00149615f
Cc_31 VPW:4 VDD:68 0.00131593f
Cc_32 VPW:4 VDD:69 0.0014072f
Cc_33 XI3|MMMN4:b VDD:70 0.000111007f
Cc_34 VPW:4 VDD:70 0.00318513f
Cc_35 VPW:5 VDD:70 0.000102231f
Cc_36 XI3|MMMN4:b VDD:81 0.000106923f
Cc_37 VPW:4 VDD:81 0.0287754f
Cc_38 XI3|MMMN4:b CB:7 0.000816769f
Cc_39 XI3|MMMN4:b CB:8 0.00549046f
Cc_40 XI3|MMMN4:b CB:9 0.00552018f
Cc_41 XI3|MMMN4:b CB:11 0.000249161f
Cc_42 XI3|MMMN4:b CB:12 0.00412866f
Cc_43 XI3|MMMN4:b CB:13 0.00393419f
Cc_44 XI3|MMMN4:b CB:15 0.000245463f
Cc_45 XI3|MMMN4:b CB:16 0.00356161f
Cc_46 XI3|MMMN4:b CB:17 0.00389219f
Cc_47 XI3|MMMN4:b CB:19 0.00207195f
Cc_48 XI3|MMMN4:b CB:20 0.00810996f
Cc_49 XI3|MMMN4:b CB:21 0.00863697f
Cc_50 XI3|MMMN4:b CT:7 0.00309215f
Cc_51 VPW:4 CT:8 0.00309985f
Cc_52 XI3|MMMN4:b CT:9 0.00814621f
Cc_53 VPW:4 CT:10 0.00847575f
Cc_54 XI3|MMMN4:b CT:11 0.0036841f
Cc_55 XI3|MMMN4:b CT:12 0.0023948f
Cc_56 VPW:4 CT:13 0.00244622f
Cc_57 XI3|MMMN4:b CT:14 0.00510199f
Cc_58 VPW:4 CT:15 0.0046935f
Cc_59 XI3|MMMN4:b CT:16 0.00215528f
Cc_60 XI3|MMMN4:b CT:17 0.00268145f
Cc_61 VPW:4 CT:18 0.00265255f
Cc_62 XI3|MMMN4:b CT:19 0.00488338f
Cc_63 VPW:4 CT:20 0.00488149f
Cc_64 XI3|MMMN4:b CT:21 0.00206179f
Cc_65 XI3|MMMN4:b CT:22 0.00469516f
Cc_66 VPW:4 CT:23 0.00468046f
Cc_67 XI3|MMMN4:b CT:24 0.0127861f
Cc_68 VPW:4 CT:25 0.0127084f
Cc_69 XI3|MMMN4:b CT:26 0.00630904f
R1 D0_noxref:pos VPW:1 1e-05
R2 XI3|MMMN4:b VPW:2 1e-05
R3 D0_noxref:pos VPW:2 1e-05
R4 VPW:2 VPW:4 1e-05
R5 XI3|MMMN4:b XI3|MMMN4@2:b 0.01
R6 XI3|MMMN4:b XI3|MMMN1:b 0.01
R7 XI3|MMMN4:b XI3|MMMN2:b 0.01
R8 XI3|MMMN4:b XI3|MMMN3:b 0.01
R9 XI3|MMMN4:b XI2|MMMN4:b 0.01
R10 XI3|MMMN4:b XI2|MMMN4@2:b 0.01
R11 XI3|MMMN4:b XI2|MMMN1:b 0.01
R12 XI3|MMMN4:b XI2|MMMN2:b 0.01
R13 XI3|MMMN4:b XI2|MMMN3:b 0.01
R14 XI3|MMMN4:b VPW:5 1e-05
R15 XI3|MMMN4:b D0_noxref:pos 0.01
R16 VPW:4 VPW:5 1e-05
R17 D0_noxref:pos VPW:4 1e-05
R18 D0_noxref:pos VPW:5 1e-05
R19 D0_noxref:pos VPW:17 1e-05
R20 D0_noxref:pos VPW 1e-05
R21 D0_noxref:pos VPW 1e-05

*|NET VNW 0.00832973f
*|P (VNW B 0.0 0.052 0.48)
*|I (XI3|MMMP2:b XI3|MMMP2 b B 0.0 0.084 0.36)
*|I (XI3|MMMP3:b XI3|MMMP3 b B 0.0 0.168 0.36)
*|I (XI3|MMMP1:b XI3|MMMP1 b B 0.0 0.252 0.36)
*|I (XI3|MMMP1@3:b XI3|MMMP1@3 b B 0.0 0.336 0.36)
*|I (XI3|MMMP1@2:b XI3|MMMP1@2 b B 0.0 0.42 0.36)
*|I (XI2|MMMP2:b XI2|MMMP2 b B 0.0 0.588 0.36)
*|I (XI2|MMMP3:b XI2|MMMP3 b B 0.0 0.672 0.36)
*|I (XI2|MMMP1:b XI2|MMMP1 b B 0.0 0.756 0.36)
*|I (XI2|MMMP1@3:b XI2|MMMP1@3 b B 0.0 0.84 0.36)
*|I (XI2|MMMP1@2:b XI2|MMMP1@2 b B 0.0 0.924 0.36)
*|I (D0_noxref:neg D0_noxref neg B 0.0 0.504 0.36)
Cc_70 XI3|MMMP2:b VSS:1 0.000180392f
Cc_71 XI3|MMMP2:b VSS:4 0.000181905f
Cc_72 XI3|MMMP2:b VDD:1 0.000181264f
Cc_73 XI3|MMMP2:b VDD:4 0.00018381f
R22 XI3|MMMP2:b VNW 1e-05
R23 XI3|MMMP2:b XI3|MMMP3:b 0.01
R24 XI3|MMMP2:b XI3|MMMP1:b 0.01
R25 XI3|MMMP2:b XI3|MMMP1@3:b 0.01
R26 XI3|MMMP2:b XI3|MMMP1@2:b 0.01
R27 XI3|MMMP2:b XI2|MMMP2:b 0.01
R28 XI3|MMMP2:b XI2|MMMP3:b 0.01
R29 XI3|MMMP2:b XI2|MMMP1:b 0.01
R30 XI3|MMMP2:b XI2|MMMP1@3:b 0.01
R31 XI3|MMMP2:b XI2|MMMP1@2:b 0.01
R32 XI3|MMMP2:b D0_noxref:neg 0.01

*|NET XI3|N1 0.727198f
*|I (XI3|MMMP2:g XI3|MMMP2 g B 0.0 0.084 0.36)
*|I (XI3|MMMP3:g XI3|MMMP3 g B 0.0 0.168 0.36)
*|I (XI3|MMMN4:g XI3|MMMN4 g B 0.0 0.084 0.12)
*|I (XI3|MMMN4@2:g XI3|MMMN4@2 g B 0.0 0.168 0.12)
*|I (XI3|MMMN1:d XI3|MMMN1 d B 0.0 0.2639 0.12)
*|I (XI3|MMMN2:d XI3|MMMN2 d B 0.0 0.3241 0.12)
*|S (XI3|N1:5 0.294 0.0573)
*|S (XI3|N1:16 0.294 0.123)
*|S (XI3|N1:17 0.0695 0.24)
*|S (XI3|N1:18 0.273 0.12)
*|S (XI3|N1:19 0.126 0.112)
*|S (XI3|N1:20 0.126 0.2155)
*|S (XI3|N1:21 0.21 0.112)
*|S (XI3|N1:22 0.084 0.251)
*|S (XI3|N1:23 0.084 0.445)
*|S (XI3|N1:24 0.168 0.251)
*|S (XI3|N1:25 0.168 0.445)
*|S (XI3|N1:26 0.084 0.035)
*|S (XI3|N1:27 0.084 0.205)
*|S (XI3|N1:28 0.168 0.035)
*|S (XI3|N1:29 0.168 0.205)
*|S (XI3|N1:30 0.084 0.288)
*|S (XI3|N1:31 0.084 0.432)
*|S (XI3|N1:32 0.084 0.275)
*|S (XI3|N1:33 0.084 0.24)
*|S (XI3|N1:34 0.084 0.229)
*|S (XI3|N1:35 0.084 0.192)
*|S (XI3|N1:36 0.084 0.24)
*|S (XI3|N1:37 0.103 0.24)
*|S (XI3|N1:38 0.126 0.24)
*|S (XI3|N1:39 0.149 0.24)
*|S (XI3|N1:40 0.168 0.24)
*|S (XI3|N1:42 0.084 0.048)
*|S (XI3|N1:43 0.168 0.275)
*|S (XI3|N1:44 0.168 0.288)
*|S (XI3|N1:45 0.168 0.24)
*|S (XI3|N1:46 0.168 0.229)
*|S (XI3|N1:47 0.168 0.192)
*|S (XI3|N1:48 0.126 0.24)
*|S (XI3|N1:50 0.126 0.1695)
*|S (XI3|N1:51 0.168 0.432)
*|S (XI3|N1:52 0.168 0.048)
*|S (XI3|N1:53 0.2695 0.112)
*|S (XI3|N1:54 0.294 0.112)
*|S (XI3|N1:57 0.294 0.072)
*|S (XI3|N1:58 0.294 0.0818)
*|S (XI3|N1:59 0.294 0.123)
*|S (XI3|N1:60 0.294 0.1612)
*|S (XI3|N1:61 0.294 0.168)
Cg_74 XI3|MMMP2:g 0 0.000524954f
Cg_75 XI3|MMMP3:g 0 6.88845e-20
Cg_76 XI3|MMMN4:g 0 0.000615742f
Cg_77 XI3|MMMN4@2:g 0 0.000215534f
Cg_78 XI3|N1:5 0 4.0356e-25
Cg_79 XI3|N1:16 0 1.12554e-25
Cg_80 XI3|N1:17 0 0.00029922f
Cg_81 XI3|N1:19 0 0.000886603f
Cg_82 XI3|N1:20 0 0.0103726f
Cg_83 XI3|N1:21 0 0.0122817f
Cg_84 XI3|N1:22 0 9.7231e-20
Cg_85 XI3|N1:23 0 0.000138739f
Cg_86 XI3|N1:24 0 0.000121105f
Cg_87 XI3|N1:25 0 9.56384e-20
Cg_88 XI3|N1:26 0 0.00010206f
Cg_89 XI3|N1:27 0 0.000125019f
Cg_90 XI3|N1:28 0 1.72713e-25
Cg_91 XI3|N1:29 0 0.000134956f
Cc_92 XI3|MMMP2:g VSS:1 0.000524737f
Cc_93 XI3|MMMN4:g VSS:1 0.0226937f
Cc_94 XI3|N1:17 VSS:1 0.000270411f
Cc_95 XI3|N1:22 VSS:1 0.00103445f
Cc_96 XI3|N1:23 VSS:1 0.000100762f
Cc_97 XI3|N1:26 VSS:1 0.000127383f
Cc_98 XI3|N1:27 VSS:1 0.000182672f
Cc_99 XI3|MMMN4@2:g VSS:5 0.0244437f
Cc_100 XI3|N1:17 VSS:5 0.0065323f
Cc_101 XI3|MMMN4@2:g VSS:6 0.00914973f
Cc_102 XI3|N1:5 VSS:7 0.00315402f
Cc_103 XI3|N1:16 VSS:7 0.00131603f
Cc_104 XI3|N1:26 VSS:61 0.00228753f
Cc_105 XI3|N1:19 VSS:62 0.00458756f
Cc_106 XI3|N1:20 VSS:62 0.00263375f
Cc_107 XI3|N1:28 VSS:62 0.00412746f
Cc_108 XI3|N1:16 VSS:63 0.00606879f
Cc_109 XI3|N1:21 VSS:63 0.00217049f
Cc_110 XI3|N1:28 VSS:63 0.00538002f
Cc_111 XI3|N1:5 VSS:64 0.00320399f
Cc_112 XI3|N1:21 VSS:65 0.000248854f
Cc_113 XI3|MMMN4:g VSS:71 0.0392725f
Cc_114 XI3|N1:27 VSS:71 0.00618469f
Cc_115 XI3|MMMN4:g VSS:72 0.0370201f
Cc_116 XI3|MMMN4@2:g VSS:72 0.0370201f
Cc_117 XI3|N1:26 VSS:72 0.00561665f
Cc_118 XI3|N1:27 VSS:72 0.00483061f
Cc_119 XI3|N1:28 VSS:72 0.00560426f
Cc_120 XI3|MMMN4@2:g VSS:73 0.0370201f
Cc_121 XI3|N1:5 VSS:73 0.00238572f
Cc_122 XI3|N1:24 VSS:73 0.000703194f
Cc_123 XI3|N1:29 VSS:73 0.00351034f
Cc_124 XI3|N1:18 VSS:75 0.000237292f
Cc_125 XI3|N1:19 VSS:81 0.00321029f
Cc_126 XI3|N1:21 VSS:81 0.00928181f
Cc_127 XI3|MMMP2:g VDD:1 0.0163441f
Cc_128 XI3|MMMN4:g VDD:1 0.000562549f
Cc_129 XI3|N1:17 VDD:1 0.00357888f
Cc_130 XI3|N1:20 VDD:1 0.0010736f
Cc_131 XI3|N1:22 VDD:1 0.000144566f
Cc_132 XI3|N1:23 VDD:1 0.000101249f
Cc_133 XI3|N1:26 VDD:1 0.000127998f
Cc_134 XI3|N1:27 VDD:1 0.000780637f
Cc_135 XI3|MMMP3:g VDD:5 0.0118287f
Cc_136 XI3|N1:21 VDD:6 0.00027621f
Cc_137 XI3|N1:23 VDD:61 0.00180645f
Cc_138 XI3|N1:25 VDD:62 0.00166285f
Cc_139 XI3|N1:25 VDD:63 0.000122965f
Cc_140 XI3|MMMP2:g VDD:71 0.039493f
Cc_141 XI3|MMMN4:g VDD:71 0.00010492f
Cc_142 XI3|N1:22 VDD:71 0.00524355f
Cc_143 XI3|N1:23 VDD:71 0.00375117f
Cc_144 XI3|MMMP3:g VDD:72 0.0375014f
Cc_145 XI3|N1:24 VDD:72 0.00504409f
Cc_146 XI3|N1:25 VDD:72 0.00374802f
Cc_147 XI3|N1:29 VDD:72 0.000527346f
Cc_148 XI3|N1:18 VDD:73 0.000654725f
Cc_149 XI3|N1:23 VDD:81 0.000455075f
Cc_150 XI3|N1:25 VDD:81 0.000983622f
Cc_151 XI3|N1:22 XI3|MMMP2:b 0.000254768f
Cc_152 XI3|N1:23 XI3|MMMP2:b 0.000385208f
Cc_153 XI3|N1:24 XI3|MMMP2:b 0.00022044f
Cc_154 XI3|N1:25 XI3|MMMP2:b 0.000450622f
Cc_155 XI3|N1:27 XI3|MMMP2:b 0.000175826f
Cc_156 XI3|N1:29 XI3|MMMP2:b 0.000197837f
Cc_157 XI3|N1:17 XI3|MMMN4:b 0.000577332f
Cc_158 XI3|N1:19 XI3|MMMN4:b 0.000445345f
Cc_159 XI3|N1:20 XI3|MMMN4:b 0.00170164f
Cc_160 XI3|N1:21 XI3|MMMN4:b 0.000716244f
Cc_161 XI3|N1:22 XI3|MMMN4:b 0.000283566f
Cc_162 XI3|N1:24 XI3|MMMN4:b 0.000276686f
Cc_163 XI3|N1:26 XI3|MMMN4:b 0.00181949f
Cc_164 XI3|N1:27 XI3|MMMN4:b 0.000427201f
Cc_165 XI3|N1:28 XI3|MMMN4:b 0.00154485f
Cc_166 XI3|N1:29 XI3|MMMN4:b 0.000306479f
Cc_167 XI3|N1:23 VPW:4 0.00146708f
Cc_168 XI3|N1:25 VPW:4 0.00113381f
R33 XI3|MMMP2:g XI3|N1:30 540
R34 XI3|MMMP2:g XI3|N1:31 540
R35 XI3|MMMP3:g XI3|N1:44 540
R36 XI3|MMMP3:g XI3|N1:51 540
R37 XI3|MMMN4:g XI3|N1:35 450
R38 XI3|MMMN4:g XI3|N1:42 450
R39 XI3|MMMN4@2:g XI3|N1:47 450
R40 XI3|MMMN4@2:g XI3|N1:52 450
R41 XI3|N1:5 XI3|N1:57 3.45396
R42 XI3|N1:16 XI3|N1:54 14
R43 XI3|N1:16 XI3|N1:59 10.9662
R44 XI3|N1:17 XI3|N1:36 1.38409
R45 XI3|N1:19 XI3|N1:50 0.412907
R46 XI3|N1:19 XI3|N1:21 0.821359
R47 XI3|N1:20 XI3|N1:48 0.154555
R48 XI3|N1:20 XI3|N1:50 0.290184
R49 XI3|N1:21 XI3|N1:53 0.771196
R50 XI3|N1:22 XI3|N1:32 71
R51 XI3|N1:22 XI3|N1:33 32.5417
R52 XI3|N1:22 XI3|N1:36 108.862
R53 XI3|N1:23 XI3|N1:31 38.4583
R54 XI3|N1:24 XI3|N1:43 71
R55 XI3|N1:24 XI3|N1:45 32.5417
R56 XI3|N1:24 XI3|N1:40 108.862
R57 XI3|N1:25 XI3|N1:51 38.4583
R58 XI3|N1:26 XI3|N1:42 36.8333
R59 XI3|N1:27 XI3|N1:34 68
R60 XI3|N1:27 XI3|N1:35 36.8333
R61 XI3|N1:28 XI3|N1:52 36.8333
R62 XI3|N1:29 XI3|N1:46 68
R63 XI3|N1:29 XI3|N1:47 36.8333
R64 XI3|N1:30 XI3|N1:32 38.4583
R65 XI3|N1:33 XI3|N1:34 31.1667
R66 XI3|N1:34 XI3|N1:36 108.862
R67 XI3|N1:36 XI3|N1:37 1.81364
R68 XI3|N1:37 XI3|N1:38 2.19545
R69 XI3|N1:38 XI3|N1:39 2.19545
R70 XI3|N1:38 XI3|N1:48 14
R71 XI3|N1:39 XI3|N1:40 1.81364
R72 XI3|N1:40 XI3|N1:46 108.862
R73 XI3|N1:43 XI3|N1:44 38.4583
R74 XI3|N1:45 XI3|N1:46 31.1667
R75 XI3|N1:53 XI3|N1:54 0.363697
R76 XI3|N1:57 XI3|N1:58 2.28313
R77 XI3|N1:57 XI3|MMMN2:d 220.5
R78 XI3|N1:58 XI3|N1:59 9.65938
R79 XI3|N1:59 XI3|N1:60 8.95688
R80 XI3|N1:59 XI3|MMMN2:d 220.5
R81 XI3|N1:60 XI3|N1:61 1.58063
R82 XI3|N1:61 XI3|MMMN2:d 220.5
R83 XI3|N1:18 XI3|MMMN2:d 1e-05
R84 XI3|MMMN1:d XI3|N1:18 1e-05

*|NET VDD 1.32447f
*|P (VDD B 0.0 0.052 0.48)
*|I (XI3|MMMP2:s XI3|MMMP2 s B 0.0 0.0721 0.36)
*|I (XI3|MMMP3:s XI3|MMMP3 s B 0.0 0.1799 0.36)
*|I (XI3|MMMP1:s XI3|MMMP1 s B 0.0 0.2401 0.36)
*|I (XI3|MMMP1:d XI3|MMMP1 d B 0.0 0.2639 0.36)
*|I (XI3|MMMP1@3:s XI3|MMMP1@3 s B 0.0 0.3241 0.36)
*|I (XI3|MMMP1@3:d XI3|MMMP1@3 d B 0.0 0.3478 0.36)
*|I (XI3|MMMP1@2:s XI3|MMMP1@2 s B 0.0 0.4082 0.36)
*|I (XI3|MMMP1@2:d XI3|MMMP1@2 d B 0.0 0.4319 0.36)
*|I (XI2|MMMP2:s XI2|MMMP2 s B 0.0 0.5762 0.36)
*|I (XI2|MMMP3:s XI2|MMMP3 s B 0.0 0.6839 0.36)
*|I (XI2|MMMP1:s XI2|MMMP1 s B 0.0 0.7442 0.36)
*|I (XI2|MMMP1:d XI2|MMMP1 d B 0.0 0.7679 0.36)
*|I (XI2|MMMP1@3:s XI2|MMMP1@3 s B 0.0 0.8282 0.36)
*|I (XI2|MMMP1@3:d XI2|MMMP1@3 d B 0.0 0.8519 0.36)
*|I (XI2|MMMP1@2:s XI2|MMMP1@2 s B 0.0 0.9121 0.36)
*|I (XI2|MMMP1@2:d XI2|MMMP1@2 d B 0.0 0.9358 0.36)
*|S (VDD:1 0.042 0.2957)
*|S (VDD:2 0.462 0.2957)
*|S (VDD:3 0.546 0.2957)
*|S (VDD:4 0.966 0.2957)
*|S (VDD:5 0.21 0.2972)
*|S (VDD:6 0.294 0.2972)
*|S (VDD:7 0.378 0.2972)
*|S (VDD:8 0.714 0.2972)
*|S (VDD:9 0.798 0.2972)
*|S (VDD:10 0.882 0.2972)
*|S (VDD:61 0.042 0.407)
*|S (VDD:62 0.21 0.407)
*|S (VDD:63 0.294 0.407)
*|S (VDD:64 0.378 0.407)
*|S (VDD:65 0.462 0.407)
*|S (VDD:66 0.546 0.407)
*|S (VDD:67 0.714 0.407)
*|S (VDD:68 0.798 0.407)
*|S (VDD:69 0.882 0.407)
*|S (VDD:70 0.966 0.407)
*|S (VDD:71 0.0215 0.36)
*|S (VDD:72 0.189 0.36)
*|S (VDD:73 0.273 0.36)
*|S (VDD:74 0.357 0.36)
*|S (VDD:75 0.441 0.36)
*|S (VDD:76 0.5255 0.36)
*|S (VDD:77 0.693 0.36)
*|S (VDD:78 0.777 0.36)
*|S (VDD:79 0.861 0.36)
*|S (VDD:80 0.945 0.36)
*|S (VDD:81 -0.0095 0.48)
*|S (VDD:86 0.042 0.312)
*|S (VDD:87 0.042 0.336)
*|S (VDD:88 0.042 0.36)
*|S (VDD:89 0.042 0.3738)
*|S (VDD:90 0.042 0.407)
*|S (VDD:92 0.042 0.44)
*|S (VDD:93 0.042 0.464)
*|S (VDD:96 0.0675 0.48)
*|S (VDD:97 0.1355 0.48)
*|S (VDD:98 0.21 0.48)
*|S (VDD:99 0.252 0.48)
*|S (VDD:100 0.294 0.48)
*|S (VDD:101 0.3185 0.48)
*|S (VDD:102 0.335 0.48)
*|S (VDD:103 0.3525 0.48)
*|S (VDD:104 0.378 0.48)
*|S (VDD:105 0.42 0.48)
*|S (VDD:106 0.462 0.48)
*|S (VDD:107 0.504 0.48)
*|S (VDD:109 0.5715 0.48)
*|S (VDD:110 0.6395 0.48)
*|S (VDD:111 0.714 0.48)
*|S (VDD:112 0.756 0.48)
*|S (VDD:113 0.798 0.48)
*|S (VDD:114 0.8225 0.48)
*|S (VDD:115 0.839 0.48)
*|S (VDD:116 0.8565 0.48)
*|S (VDD:117 0.882 0.48)
*|S (VDD:118 0.924 0.48)
*|S (VDD:119 0.966 0.48)
*|S (VDD:121 0.21 0.44)
*|S (VDD:122 0.21 0.464)
*|S (VDD:124 0.294 0.44)
*|S (VDD:125 0.294 0.464)
*|S (VDD:127 0.378 0.44)
*|S (VDD:128 0.378 0.464)
*|S (VDD:130 0.462 0.44)
*|S (VDD:131 0.462 0.464)
*|S (VDD:133 0.546 0.44)
*|S (VDD:134 0.546 0.464)
*|S (VDD:136 0.714 0.44)
*|S (VDD:137 0.714 0.464)
*|S (VDD:139 0.798 0.44)
*|S (VDD:140 0.798 0.464)
*|S (VDD:142 0.882 0.44)
*|S (VDD:143 0.882 0.464)
*|S (VDD:145 0.966 0.44)
*|S (VDD:146 0.966 0.464)
*|S (VDD:148 0.21 0.312)
*|S (VDD:149 0.21 0.336)
*|S (VDD:150 0.21 0.36)
*|S (VDD:151 0.21 0.3738)
*|S (VDD:152 0.21 0.407)
*|S (VDD:153 0.294 0.312)
*|S (VDD:154 0.294 0.336)
*|S (VDD:155 0.294 0.36)
*|S (VDD:156 0.294 0.3738)
*|S (VDD:157 0.294 0.407)
*|S (VDD:158 0.378 0.312)
*|S (VDD:159 0.378 0.336)
*|S (VDD:160 0.378 0.36)
*|S (VDD:161 0.378 0.3738)
*|S (VDD:162 0.378 0.407)
*|S (VDD:163 0.462 0.312)
*|S (VDD:164 0.462 0.336)
*|S (VDD:165 0.462 0.36)
*|S (VDD:166 0.462 0.3738)
*|S (VDD:167 0.462 0.407)
*|S (VDD:169 0.546 0.312)
*|S (VDD:170 0.546 0.336)
*|S (VDD:171 0.546 0.36)
*|S (VDD:172 0.546 0.3738)
*|S (VDD:173 0.546 0.407)
*|S (VDD:175 0.714 0.312)
*|S (VDD:176 0.714 0.336)
*|S (VDD:177 0.714 0.36)
*|S (VDD:178 0.714 0.3738)
*|S (VDD:179 0.714 0.407)
*|S (VDD:180 0.798 0.312)
*|S (VDD:181 0.798 0.336)
*|S (VDD:182 0.798 0.36)
*|S (VDD:183 0.798 0.3738)
*|S (VDD:184 0.798 0.407)
*|S (VDD:185 0.882 0.312)
*|S (VDD:186 0.882 0.336)
*|S (VDD:187 0.882 0.36)
*|S (VDD:188 0.882 0.3738)
*|S (VDD:189 0.882 0.407)
*|S (VDD:190 0.966 0.312)
*|S (VDD:191 0.966 0.336)
*|S (VDD:192 0.966 0.36)
*|S (VDD:193 0.966 0.3738)
*|S (VDD:194 0.966 0.407)
*|S (VDD:212 0.462 0.36)
*|S (VDD:235 0.966 0.36)
Cg_169 VDD:1 0 0.000340334f
Cg_170 VDD:2 0 0.00133564f
Cg_171 VDD:3 0 0.000932651f
Cg_172 VDD:4 0 0.000221557f
Cg_173 VDD:5 0 5.99075e-20
Cg_174 VDD:6 0 3.56598e-25
Cg_175 VDD:7 0 1.44151e-25
Cg_176 VDD:8 0 5.99075e-20
Cg_177 VDD:9 0 2.55041e-25
Cg_178 VDD:10 0 2.46017e-25
Cg_179 VDD:61 0 0.00050508f
Cg_180 VDD:62 0 9.58895e-20
Cg_181 VDD:63 0 1.09046e-20
Cg_182 VDD:64 0 8.73433e-20
Cg_183 VDD:65 0 0.00026529f
Cg_184 VDD:66 0 0.000294751f
Cg_185 VDD:67 0 3.97059e-20
Cg_186 VDD:68 0 1.08735e-20
Cg_187 VDD:69 0 0.000152829f
Cg_188 VDD:70 0 0.000494583f
Cg_189 VDD:73 0 0.000307727f
Cg_190 VDD:74 0 0.000369745f
Cg_191 VDD:75 0 0.000799124f
Cg_192 VDD:78 0 0.000307727f
Cg_193 VDD:79 0 0.000335772f
Cg_194 VDD:80 0 0.000771534f
Cg_195 VDD:81 0 0.0783003f
Cc_196 VDD:1 VSS:1 0.010121f
Cc_197 VDD:61 VSS:1 0.000801205f
Cc_198 VDD:71 VSS:1 0.00196632f
Cc_199 VDD:81 VSS:1 0.000676209f
Cc_200 VDD:2 VSS:2 0.0125145f
Cc_201 VDD:3 VSS:2 0.00275233f
Cc_202 VDD:65 VSS:2 0.000290859f
Cc_203 VDD:66 VSS:2 0.000284809f
Cc_204 VDD:75 VSS:2 0.0015899f
Cc_205 VDD:76 VSS:2 0.00133206f
Cc_206 VDD:81 VSS:2 0.000211814f
Cc_207 VDD:2 VSS:3 0.00266245f
Cc_208 VDD:3 VSS:3 0.00129445f
Cc_209 VDD:75 VSS:3 0.000299773f
Cc_210 VDD:76 VSS:3 0.000553499f
Cc_211 VDD:4 VSS:4 0.0103983f
Cc_212 VDD:70 VSS:4 0.000888736f
Cc_213 VDD:80 VSS:4 0.00201933f
Cc_214 VDD:81 VSS:4 0.000986758f
Cc_215 VDD:81 VSS:6 0.00033574f
Cc_216 VDD:81 VSS:9 0.000255344f
Cc_217 VDD:1 VSS:61 0.000814217f
Cc_218 VDD:71 VSS:61 0.000107327f
Cc_219 VDD:2 VSS:65 0.000287444f
Cc_220 VDD:2 VSS:66 0.000287011f
Cc_221 VDD:4 VSS:70 0.000905012f
Cc_222 VDD:80 VSS:70 0.000111738f
Cc_223 VDD:1 VSS:71 0.00153959f
Cc_224 VDD:71 VSS:71 0.000615409f
Cc_225 VDD:72 VSS:72 0.000113667f
Cc_226 VDD:72 VSS:73 0.000718117f
Cc_227 VDD:73 VSS:74 0.000111543f
Cc_228 VDD:74 VSS:74 0.00076084f
Cc_229 VDD:2 VSS:75 0.0012484f
Cc_230 VDD:3 VSS:75 0.000236885f
Cc_231 VDD:75 VSS:75 0.000538602f
Cc_232 VDD:76 VSS:75 0.000114646f
Cc_233 VDD:2 VSS:76 0.00101832f
Cc_234 VDD:3 VSS:76 0.000461584f
Cc_235 VDD:75 VSS:76 0.000114656f
Cc_236 VDD:76 VSS:76 0.000526477f
Cc_237 VDD:77 VSS:77 0.000118557f
Cc_238 VDD:77 VSS:78 0.000718893f
Cc_239 VDD:78 VSS:79 0.000111848f
Cc_240 VDD:79 VSS:79 0.00076285f
Cc_241 VDD:4 VSS:80 0.00158712f
Cc_242 VDD:80 VSS:80 0.000691911f
Cc_243 VDD:1 VSS:81 0.000696266f
Cc_244 VDD:2 VSS:81 0.000223686f
Cc_245 VDD:4 VSS:81 0.000934119f
Cc_246 VDD:5 VSS:81 0.000563715f
Cc_247 VDD:8 VSS:81 0.000289875f
Cc_248 VDD:81 VSS:81 0.00247685f
R85 VDD:1 VDD:86 3.04417
R86 VDD:2 VDD:163 3.04417
R87 VDD:3 VDD:169 3.04417
R88 VDD:4 VDD:190 3.04417
R89 VDD:5 VDD:148 3.45396
R90 VDD:6 VDD:153 3.45396
R91 VDD:7 VDD:158 3.45396
R92 VDD:8 VDD:175 3.45396
R93 VDD:9 VDD:180 3.45396
R94 VDD:10 VDD:185 3.45396
R95 VDD:61 VDD:92 5.61
R96 VDD:61 VDD:90 16.23
R97 VDD:62 VDD:121 5.61
R98 VDD:62 VDD:152 16.23
R99 VDD:63 VDD:124 5.61
R100 VDD:63 VDD:157 16.23
R101 VDD:64 VDD:127 5.61
R102 VDD:64 VDD:162 16.23
R103 VDD:65 VDD:130 5.61
R104 VDD:65 VDD:167 16.23
R105 VDD:66 VDD:133 5.61
R106 VDD:66 VDD:173 16.23
R107 VDD:67 VDD:136 5.61
R108 VDD:67 VDD:179 16.23
R109 VDD:68 VDD:139 5.61
R110 VDD:68 VDD:184 16.23
R111 VDD:69 VDD:142 5.61
R112 VDD:69 VDD:189 16.23
R113 VDD:70 VDD:145 5.61
R114 VDD:70 VDD:194 16.23
R115 VDD VDD:81 0.334353
R116 XI3|MMMP2:s VDD:86 430.497
R117 XI3|MMMP2:s VDD:88 430.497
R118 XI3|MMMP2:s VDD:90 430.497
R119 VDD:86 VDD:87 4.496
R120 VDD:87 VDD:88 4.496
R121 VDD:88 VDD:89 2.57583
R122 VDD:89 VDD:90 6.22883
R123 VDD:92 VDD:93 4.08
R124 VDD VDD:93 14
R125 VDD VDD:96 0.165554
R126 VDD:96 VDD:97 0.501056
R127 VDD:97 VDD:98 0.559551
R128 VDD:98 VDD:99 0.315452
R129 VDD:98 VDD:122 14
R130 VDD:99 VDD:100 0.315452
R131 VDD:100 VDD:101 0.184013
R132 VDD:100 VDD:125 14
R133 VDD:101 VDD:102 0.11578
R134 VDD:102 VDD:103 0.113615
R135 VDD:103 VDD:104 0.165554
R136 VDD:104 VDD:105 0.272677
R137 VDD:104 VDD:128 14
R138 VDD:105 VDD:106 0.272677
R139 VDD:106 VDD:107 0.272677
R140 VDD:106 VDD:131 14
R141 VDD VDD:107 0.272677
R142 VDD VDD:109 0.165554
R143 VDD VDD:134 14
R144 VDD:109 VDD:110 0.501056
R145 VDD:110 VDD:111 0.559551
R146 VDD:111 VDD:112 0.315452
R147 VDD:111 VDD:137 14
R148 VDD:112 VDD:113 0.315452
R149 VDD:113 VDD:114 0.184013
R150 VDD:113 VDD:140 14
R151 VDD:114 VDD:115 0.11578
R152 VDD:115 VDD:116 0.113615
R153 VDD:116 VDD:117 0.165554
R154 VDD:117 VDD:118 0.272677
R155 VDD:117 VDD:143 14
R156 VDD:118 VDD:119 0.272677
R157 VDD:119 VDD:146 14
R158 VDD:121 VDD:122 4.08
R159 VDD:124 VDD:125 4.08
R160 VDD:127 VDD:128 4.08
R161 VDD:130 VDD:131 4.08
R162 VDD:133 VDD:134 4.08
R163 VDD:136 VDD:137 4.08
R164 VDD:139 VDD:140 4.08
R165 VDD:142 VDD:143 4.08
R166 VDD:145 VDD:146 4.08
R167 VDD:148 VDD:149 5.62
R168 VDD:148 XI3|MMMP1:s 430.497
R169 VDD:149 VDD:150 5.62
R170 VDD:150 VDD:151 3.21979
R171 VDD:150 XI3|MMMP1:s 430.497
R172 VDD:151 VDD:152 7.78604
R173 VDD:152 XI3|MMMP1:s 430.497
R174 VDD:153 VDD:154 5.62
R175 VDD:153 XI3|MMMP1@3:s 430.497
R176 VDD:154 VDD:155 5.62
R177 VDD:155 VDD:156 3.21979
R178 VDD:155 XI3|MMMP1@3:s 430.497
R179 VDD:156 VDD:157 7.78604
R180 VDD:157 XI3|MMMP1@3:s 430.497
R181 VDD:158 VDD:159 5.62
R182 VDD:158 XI3|MMMP1@2:s 430.497
R183 VDD:159 VDD:160 5.62
R184 VDD:160 VDD:161 3.21979
R185 VDD:160 XI3|MMMP1@2:s 430.497
R186 VDD:161 VDD:162 7.78604
R187 VDD:162 XI3|MMMP1@2:s 430.497
R188 VDD:163 VDD:164 4.496
R189 VDD:163 VDD:212 430.497
R190 VDD:164 VDD:165 4.496
R191 VDD:165 VDD:166 2.57583
R192 VDD:165 VDD:212 430.497
R193 VDD:166 VDD:167 6.22883
R194 VDD:167 VDD:212 430.497
R195 VDD:169 VDD:170 4.496
R196 VDD:169 XI2|MMMP2:s 430.497
R197 VDD:170 VDD:171 4.496
R198 VDD:171 VDD:172 2.57583
R199 VDD:171 XI2|MMMP2:s 430.497
R200 VDD:172 VDD:173 6.22883
R201 VDD:173 XI2|MMMP2:s 430.497
R202 VDD:175 VDD:176 5.62
R203 VDD:175 XI2|MMMP1:s 430.497
R204 VDD:176 VDD:177 5.62
R205 VDD:177 VDD:178 3.21979
R206 VDD:177 XI2|MMMP1:s 430.497
R207 VDD:178 VDD:179 7.78604
R208 VDD:179 XI2|MMMP1:s 430.497
R209 VDD:180 VDD:181 5.62
R210 VDD:180 XI2|MMMP1@3:s 430.497
R211 VDD:181 VDD:182 5.62
R212 VDD:182 VDD:183 3.21979
R213 VDD:182 XI2|MMMP1@3:s 430.497
R214 VDD:183 VDD:184 7.78604
R215 VDD:184 XI2|MMMP1@3:s 430.497
R216 VDD:185 VDD:186 5.62
R217 VDD:185 XI2|MMMP1@2:s 430.497
R218 VDD:186 VDD:187 5.62
R219 VDD:187 VDD:188 3.21979
R220 VDD:187 XI2|MMMP1@2:s 430.497
R221 VDD:188 VDD:189 7.78604
R222 VDD:189 XI2|MMMP1@2:s 430.497
R223 VDD:190 VDD:191 4.496
R224 VDD:190 VDD:235 430.497
R225 VDD:191 VDD:192 4.496
R226 VDD:192 VDD:193 2.57583
R227 VDD:192 VDD:235 430.497
R228 VDD:193 VDD:194 6.22883
R229 VDD:194 VDD:235 430.497
R230 VDD:71 XI3|MMMP2:s 1e-05
R231 VDD:72 XI3|MMMP1:s 1e-05
R232 XI3|MMMP3:s VDD:72 1e-05
R233 VDD:73 XI3|MMMP1@3:s 1e-05
R234 XI3|MMMP1:d VDD:73 1e-05
R235 VDD:74 XI3|MMMP1@2:s 1e-05
R236 XI3|MMMP1@3:d VDD:74 1e-05
R237 VDD:75 VDD:212 1e-05
R238 XI3|MMMP1@2:d VDD:75 1e-05
R239 VDD:76 XI2|MMMP2:s 1e-05
R240 VDD:77 XI2|MMMP1:s 1e-05
R241 XI2|MMMP3:s VDD:77 1e-05
R242 VDD:78 XI2|MMMP1@3:s 1e-05
R243 XI2|MMMP1:d VDD:78 1e-05
R244 VDD:79 XI2|MMMP1@2:s 1e-05
R245 XI2|MMMP1@3:d VDD:79 1e-05
R246 VDD:80 VDD:235 1e-05
R247 XI2|MMMP1@2:d VDD:80 1e-05

*|NET XI2|N1 0.729601f
*|I (XI2|MMMP2:g XI2|MMMP2 g B 0.0 0.588 0.36)
*|I (XI2|MMMP3:g XI2|MMMP3 g B 0.0 0.672 0.36)
*|I (XI2|MMMN4:g XI2|MMMN4 g B 0.0 0.588 0.12)
*|I (XI2|MMMN4@2:g XI2|MMMN4@2 g B 0.0 0.672 0.12)
*|I (XI2|MMMN1:d XI2|MMMN1 d B 0.0 0.7679 0.12)
*|I (XI2|MMMN2:d XI2|MMMN2 d B 0.0 0.8282 0.12)
*|S (XI2|N1:5 0.798 0.0573)
*|S (XI2|N1:16 0.798 0.123)
*|S (XI2|N1:17 0.5735 0.24)
*|S (XI2|N1:18 0.777 0.12)
*|S (XI2|N1:19 0.63 0.112)
*|S (XI2|N1:20 0.63 0.2155)
*|S (XI2|N1:21 0.714 0.112)
*|S (XI2|N1:22 0.588 0.251)
*|S (XI2|N1:23 0.588 0.445)
*|S (XI2|N1:24 0.672 0.251)
*|S (XI2|N1:25 0.672 0.445)
*|S (XI2|N1:26 0.588 0.035)
*|S (XI2|N1:27 0.588 0.205)
*|S (XI2|N1:28 0.672 0.035)
*|S (XI2|N1:29 0.672 0.205)
*|S (XI2|N1:30 0.588 0.288)
*|S (XI2|N1:31 0.588 0.432)
*|S (XI2|N1:32 0.588 0.275)
*|S (XI2|N1:33 0.588 0.24)
*|S (XI2|N1:34 0.588 0.229)
*|S (XI2|N1:35 0.588 0.192)
*|S (XI2|N1:36 0.588 0.24)
*|S (XI2|N1:37 0.607 0.24)
*|S (XI2|N1:38 0.63 0.24)
*|S (XI2|N1:39 0.653 0.24)
*|S (XI2|N1:40 0.672 0.24)
*|S (XI2|N1:42 0.588 0.048)
*|S (XI2|N1:43 0.672 0.275)
*|S (XI2|N1:44 0.672 0.288)
*|S (XI2|N1:45 0.672 0.24)
*|S (XI2|N1:46 0.672 0.229)
*|S (XI2|N1:47 0.672 0.192)
*|S (XI2|N1:48 0.63 0.24)
*|S (XI2|N1:50 0.63 0.1695)
*|S (XI2|N1:51 0.672 0.432)
*|S (XI2|N1:52 0.672 0.048)
*|S (XI2|N1:53 0.7735 0.112)
*|S (XI2|N1:54 0.798 0.112)
*|S (XI2|N1:57 0.798 0.072)
*|S (XI2|N1:58 0.798 0.0818)
*|S (XI2|N1:59 0.798 0.123)
*|S (XI2|N1:60 0.798 0.1612)
*|S (XI2|N1:61 0.798 0.168)
Cg_249 XI2|MMMP2:g 0 0.000124551f
Cg_250 XI2|MMMP3:g 0 6.88845e-20
Cg_251 XI2|MMMN4:g 0 0.000629492f
Cg_252 XI2|MMMN4@2:g 0 0.000215534f
Cg_253 XI2|N1:5 0 4.01273e-25
Cg_254 XI2|N1:16 0 1.12554e-25
Cg_255 XI2|N1:17 0 0.00170677f
Cg_256 XI2|N1:19 0 0.000159579f
Cg_257 XI2|N1:20 0 0.013611f
Cg_258 XI2|N1:21 0 0.0106212f
Cg_259 XI2|N1:22 0 0.000250101f
Cg_260 XI2|N1:23 0 0.000465208f
Cg_261 XI2|N1:24 0 0.000128889f
Cg_262 XI2|N1:25 0 9.70305e-20
Cg_263 XI2|N1:26 0 0.000298177f
Cg_264 XI2|N1:27 0 0.000159114f
Cg_265 XI2|N1:28 0 1.72814e-25
Cg_266 XI2|N1:29 0 0.000143631f
Cc_267 XI2|MMMN4:g VSS:2 0.000364844f
Cc_268 XI2|N1:17 VSS:2 0.000129995f
Cc_269 XI2|N1:22 VSS:2 0.000488719f
Cc_270 XI2|N1:26 VSS:2 0.000116265f
Cc_271 XI2|N1:27 VSS:2 0.000472786f
Cc_272 XI2|MMMN4:g VSS:3 0.0221745f
Cc_273 XI2|N1:22 VSS:3 0.00100037f
Cc_274 XI2|MMMN4:g VSS:8 0.0147067f
Cc_275 XI2|MMMN4@2:g VSS:8 0.00973698f
Cc_276 XI2|N1:17 VSS:8 0.00652373f
Cc_277 XI2|MMMN4@2:g VSS:9 0.00914973f
Cc_278 XI2|N1:5 VSS:10 0.00315402f
Cc_279 XI2|N1:16 VSS:10 0.00131603f
Cc_280 XI2|N1:26 VSS:64 0.000140143f
Cc_281 XI2|N1:26 VSS:65 0.000474536f
Cc_282 XI2|N1:26 VSS:66 0.00218852f
Cc_283 XI2|N1:19 VSS:67 0.00466003f
Cc_284 XI2|N1:20 VSS:67 0.00264765f
Cc_285 XI2|N1:28 VSS:67 0.00411336f
Cc_286 XI2|N1:16 VSS:68 0.00606879f
Cc_287 XI2|N1:21 VSS:68 0.00225624f
Cc_288 XI2|N1:28 VSS:68 0.00538002f
Cc_289 XI2|N1:5 VSS:69 0.00313984f
Cc_290 XI2|N1:21 VSS:70 0.000285547f
Cc_291 XI2|N1:26 VSS:75 0.000163996f
Cc_292 XI2|MMMN4:g VSS:76 0.0392725f
Cc_293 XI2|N1:26 VSS:76 0.00577625f
Cc_294 XI2|N1:27 VSS:76 0.00607385f
Cc_295 XI2|MMMN4:g VSS:77 0.0370201f
Cc_296 XI2|MMMN4@2:g VSS:77 0.0370201f
Cc_297 XI2|N1:18 VSS:77 0.000236905f
Cc_298 XI2|N1:28 VSS:77 0.00558006f
Cc_299 XI2|N1:29 VSS:77 0.00483061f
Cc_300 XI2|MMMN4@2:g VSS:78 0.0370201f
Cc_301 XI2|N1:5 VSS:78 0.00238572f
Cc_302 XI2|N1:24 VSS:78 0.000701707f
Cc_303 XI2|N1:29 VSS:78 0.00350853f
Cc_304 XI2|N1:19 VSS:81 0.00321029f
Cc_305 XI2|N1:21 VSS:81 0.00928181f
Cc_306 XI2|MMMN4:g VDD:2 0.000363196f
Cc_307 XI2|N1:17 VDD:2 0.000129408f
Cc_308 XI2|N1:22 VDD:2 0.000486512f
Cc_309 XI2|N1:23 VDD:2 0.000303411f
Cc_310 XI2|N1:26 VDD:2 0.00011574f
Cc_311 XI2|N1:27 VDD:2 0.000175867f
Cc_312 XI2|MMMP2:g VDD:3 0.0160297f
Cc_313 XI2|N1:17 VDD:3 0.003244f
Cc_314 XI2|N1:20 VDD:3 0.000982062f
Cc_315 XI2|N1:22 VDD:3 0.000113168f
Cc_316 XI2|N1:27 VDD:3 0.000637991f
Cc_317 XI2|MMMP3:g VDD:8 0.0118287f
Cc_318 XI2|N1:21 VDD:9 0.00033803f
Cc_319 XI2|N1:23 VDD:64 0.000107472f
Cc_320 XI2|N1:23 VDD:65 0.000261371f
Cc_321 XI2|N1:23 VDD:66 0.00175624f
Cc_322 XI2|N1:25 VDD:67 0.00166285f
Cc_323 XI2|N1:25 VDD:68 0.000122965f
Cc_324 XI2|N1:22 VDD:75 0.000248445f
Cc_325 XI2|MMMP2:g VDD:76 0.039493f
Cc_326 XI2|N1:22 VDD:76 0.00243535f
Cc_327 XI2|N1:23 VDD:76 0.006635f
Cc_328 XI2|MMMP3:g VDD:77 0.0375014f
Cc_329 XI2|N1:24 VDD:77 0.00504409f
Cc_330 XI2|N1:25 VDD:77 0.00374802f
Cc_331 XI2|N1:29 VDD:77 0.000527346f
Cc_332 XI2|N1:18 VDD:78 0.000656305f
Cc_333 XI2|N1:23 VDD:81 0.00055163f
Cc_334 XI2|N1:25 VDD:81 0.000907983f
Cc_335 XI2|N1:22 XI3|MMMP2:b 0.000254768f
Cc_336 XI2|N1:23 XI3|MMMP2:b 0.000463994f
Cc_337 XI2|N1:24 XI3|MMMP2:b 0.00022044f
Cc_338 XI2|N1:25 XI3|MMMP2:b 0.000450622f
Cc_339 XI2|N1:27 XI3|MMMP2:b 0.000175826f
Cc_340 XI2|N1:29 XI3|MMMP2:b 0.000197837f
Cc_341 XI2|N1:20 XI3|MMMN4:b 0.000960066f
Cc_342 XI2|N1:21 XI3|MMMN4:b 0.00133772f
Cc_343 XI2|N1:22 XI3|MMMN4:b 0.000256676f
Cc_344 XI2|N1:24 XI3|MMMN4:b 0.000281544f
Cc_345 XI2|N1:26 XI3|MMMN4:b 0.0015819f
Cc_346 XI2|N1:27 XI3|MMMN4:b 0.000391944f
Cc_347 XI2|N1:28 XI3|MMMN4:b 0.00159327f
Cc_348 XI2|N1:29 XI3|MMMN4:b 0.000313881f
Cc_349 XI2|N1:23 VPW:4 0.00111204f
Cc_350 XI2|N1:25 VPW:4 0.00119541f
R248 XI2|MMMP2:g XI2|N1:30 540
R249 XI2|MMMP2:g XI2|N1:31 540
R250 XI2|MMMP3:g XI2|N1:44 540
R251 XI2|MMMP3:g XI2|N1:51 540
R252 XI2|MMMN4:g XI2|N1:35 450
R253 XI2|MMMN4:g XI2|N1:42 450
R254 XI2|MMMN4@2:g XI2|N1:47 450
R255 XI2|MMMN4@2:g XI2|N1:52 450
R256 XI2|N1:5 XI2|N1:57 3.45396
R257 XI2|N1:16 XI2|N1:54 14
R258 XI2|N1:16 XI2|N1:59 10.9662
R259 XI2|N1:17 XI2|N1:36 1.38409
R260 XI2|N1:19 XI2|N1:50 0.412907
R261 XI2|N1:19 XI2|N1:21 0.821359
R262 XI2|N1:20 XI2|N1:48 0.154555
R263 XI2|N1:20 XI2|N1:50 0.290184
R264 XI2|N1:21 XI2|N1:53 0.771196
R265 XI2|N1:22 XI2|N1:32 71
R266 XI2|N1:22 XI2|N1:33 32.5417
R267 XI2|N1:22 XI2|N1:36 108.862
R268 XI2|N1:23 XI2|N1:31 38.4583
R269 XI2|N1:24 XI2|N1:43 71
R270 XI2|N1:24 XI2|N1:45 32.5417
R271 XI2|N1:24 XI2|N1:40 108.862
R272 XI2|N1:25 XI2|N1:51 38.4583
R273 XI2|N1:26 XI2|N1:42 36.8333
R274 XI2|N1:27 XI2|N1:34 68
R275 XI2|N1:27 XI2|N1:35 36.8333
R276 XI2|N1:28 XI2|N1:52 36.8333
R277 XI2|N1:29 XI2|N1:46 68
R278 XI2|N1:29 XI2|N1:47 36.8333
R279 XI2|N1:30 XI2|N1:32 38.4583
R280 XI2|N1:33 XI2|N1:34 31.1667
R281 XI2|N1:34 XI2|N1:36 108.862
R282 XI2|N1:36 XI2|N1:37 1.81364
R283 XI2|N1:37 XI2|N1:38 2.19545
R284 XI2|N1:38 XI2|N1:39 2.19545
R285 XI2|N1:38 XI2|N1:48 14
R286 XI2|N1:39 XI2|N1:40 1.81364
R287 XI2|N1:40 XI2|N1:46 108.862
R288 XI2|N1:43 XI2|N1:44 38.4583
R289 XI2|N1:45 XI2|N1:46 31.1667
R290 XI2|N1:53 XI2|N1:54 0.363697
R291 XI2|N1:57 XI2|N1:58 2.28313
R292 XI2|N1:57 XI2|MMMN2:d 220.5
R293 XI2|N1:58 XI2|N1:59 9.65938
R294 XI2|N1:59 XI2|N1:60 8.95688
R295 XI2|N1:59 XI2|MMMN2:d 220.5
R296 XI2|N1:60 XI2|N1:61 1.58063
R297 XI2|N1:61 XI2|MMMN2:d 220.5
R298 XI2|N1:18 XI2|MMMN2:d 1e-05
R299 XI2|MMMN1:d XI2|N1:18 1e-05

*|NET XI2|N0 0.974563f