*|DSPF	1.5
*|DESIGN	MOM2D
*|DATE	"Sun Jan 6 2019"
*|VENDOR	"Mentor Graphics Corporation"
*|PROGRAM	"Calibre xACT"
*|VERSION	"v2018.4_34.26"
*|DIVIDER	|
*|DELIMITER	:
* Corner Name: 14lpp_13M_3Mx_2Cx_4Kx_2Hx_2Gx_LB_nominal_detailed_25
* Nominal Temperature: 25C
* Circuit Temperature: 25C
* 

* Integrated TICER reduction is not enabled.
* SHORT DELAY THRESHOLD: 2e-14
* Fill Mode: NG
* PEX REDUCE CC ABSOLUTE : 1
* PEX REDUCE CC RELATIVE : 0.01
* Delta transform mode : 344834


.subckt MOM2D VSS VDD CT CB VNW VPW
*
* VSS VSS
* VDD VDD
* CT CT
* CB CB
* VNW VNW
* VPW VPW
*
*|GROUND_NET 0
*
* Net Section
*


*|NET VNW 0.00821311f
*|P (VNW B 0.0 0.052 0.48)
*|I (XI3|MMMP2:b XI3|MMMP2 b B 0.0 0.084 0.36)
*|I (XI3|MMMP3:b XI3|MMMP3 b B 0.0 0.168 0.36)
*|I (XI3|MMMP1:b XI3|MMMP1 b B 0.0 0.252 0.36)
*|I (XI3|MMMP1@3:b XI3|MMMP1@3 b B 0.0 0.336 0.36)
*|I (XI3|MMMP1@2:b XI3|MMMP1@2 b B 0.0 0.42 0.36)
*|I (XI2|MMMP2:b XI2|MMMP2 b B 0.0 0.588 0.36)
*|I (XI2|MMMP3:b XI2|MMMP3 b B 0.0 0.672 0.36)
*|I (XI2|MMMP1:b XI2|MMMP1 b B 0.0 0.756 0.36)
*|I (XI2|MMMP1@3:b XI2|MMMP1@3 b B 0.0 0.84 0.36)
*|I (XI2|MMMP1@2:b XI2|MMMP1@2 b B 0.0 0.924 0.36)
*|I (D0_noxref:neg D0_noxref neg B 0.0 0.504 0.36)
Cc_1 VNW VSS:1 0.000180383f
Cc_2 VNW VSS:4 0.000181917f
Cc_3 VNW VDD:1 0.000181261f
Cc_4 VNW VDD:4 0.000183736f
R1 VNW XI3|MMMP2:b 1e-05 $X=0.052 $Y=0.48 $X2=0.084 $Y2=0.36
R2 XI3|MMMP2:b XI3|MMMP3:b 0.01 $X=0.084 $Y=0.36 $X2=0.168 $Y2=0.36
R3 XI3|MMMP2:b XI3|MMMP1:b 0.01 $X=0.084 $Y=0.36 $X2=0.252 $Y2=0.36
R4 XI3|MMMP2:b XI3|MMMP1@3:b 0.01 $X=0.084 $Y=0.36 $X2=0.336 $Y2=0.36
R5 XI3|MMMP2:b XI3|MMMP1@2:b 0.01 $X=0.084 $Y=0.36 $X2=0.42 $Y2=0.36
R6 XI3|MMMP2:b XI2|MMMP2:b 0.01 $X=0.084 $Y=0.36 $X2=0.588 $Y2=0.36
R7 XI3|MMMP2:b XI2|MMMP3:b 0.01 $X=0.084 $Y=0.36 $X2=0.672 $Y2=0.36
R8 XI3|MMMP2:b XI2|MMMP1:b 0.01 $X=0.084 $Y=0.36 $X2=0.756 $Y2=0.36
R9 XI3|MMMP2:b XI2|MMMP1@3:b 0.01 $X=0.084 $Y=0.36 $X2=0.84 $Y2=0.36
R10 XI3|MMMP2:b XI2|MMMP1@2:b 0.01 $X=0.084 $Y=0.36 $X2=0.924 $Y2=0.36
R11 XI3|MMMP2:b D0_noxref:neg 0.01 $X=0.084 $Y=0.36 $X2=0.504 $Y2=0.36

*|NET VPW 0.277455f
*|P (VPW B 0.0 0.052 0.0)
*|I (XI3|MMMN4:b XI3|MMMN4 b B 0.0 0.084 0.12)
*|I (XI3|MMMN4@2:b XI3|MMMN4@2 b B 0.0 0.168 0.12)
*|I (XI3|MMMN1:b XI3|MMMN1 b B 0.0 0.252 0.12)
*|I (XI3|MMMN2:b XI3|MMMN2 b B 0.0 0.336 0.12)
*|I (XI3|MMMN3:b XI3|MMMN3 b B 0.0 0.42 0.12)
*|I (XI2|MMMN4:b XI2|MMMN4 b B 0.0 0.588 0.12)
*|I (XI2|MMMN4@2:b XI2|MMMN4@2 b B 0.0 0.672 0.12)
*|I (XI2|MMMN1:b XI2|MMMN1 b B 0.0 0.756 0.12)
*|I (XI2|MMMN2:b XI2|MMMN2 b B 0.0 0.84 0.12)
*|I (XI2|MMMN3:b XI2|MMMN3 b B 0.0 0.924 0.12)
*|I (D0_noxref:pos D0_noxref pos B 0.0 0.504 0.36)
*|S (VPW:2 -1.7935 0.24)
*|S (VPW:4 0.504 2.246)
*|S (VPW:5 2.8015 0.24)
*|S (VPW:16 -1.7935 0.24)
*|S (VPW:17 2.8015 0.24)
Cc_5 VPW:5 VSS:1 0.00421497f
Cc_6 VPW:5 VSS:4 0.00420388f
Cc_7 VPW:5 VSS:61 0.00357269f
Cc_8 VPW:5 VSS:62 0.00165096f
Cc_9 VPW:5 VSS:63 0.00180659f
Cc_10 VPW:5 VSS:64 0.00177511f
Cc_11 VPW:5 VSS:65 0.00163009f
Cc_12 VPW:5 VSS:66 0.00158586f
Cc_13 VPW:5 VSS:67 0.00156059f
Cc_14 VPW:5 VSS:68 0.00180659f
Cc_15 VPW:5 VSS:69 0.0018667f
Cc_16 VPW:5 VSS:70 0.00367321f
Cc_17 VPW:5 VSS 0.0286408f
Cc_18 VPW:5 VDD:1 0.00412924f
Cc_19 VPW:5 VDD:4 0.00413381f
Cc_20 VPW:4 VDD:61 0.00323066f
Cc_21 VPW:5 VDD:61 0.000211547f
Cc_22 VPW:4 VDD:62 0.00158329f
Cc_23 VPW:4 VDD:63 0.00140306f
Cc_24 VPW:4 VDD:64 0.00138431f
Cc_25 VPW:4 VDD:65 0.00140624f
Cc_26 VPW:4 VDD:66 0.00161747f
Cc_27 VPW:4 VDD:67 0.00158329f
Cc_28 VPW:4 VDD:68 0.00140306f
Cc_29 VPW:4 VDD:69 0.00149433f
Cc_30 VPW:4 VDD:70 0.00327878f
Cc_31 VPW:5 VDD:70 0.000213553f
Cc_32 VPW:4 VDD 0.0294288f
Cc_33 VPW:5 VDD 0.000201509f
Cc_34 VPW:5 CT:5 0.00330624f
Cc_35 VPW:4 CT:6 0.00330512f
Cc_36 VPW:5 CT:7 0.00404348f
Cc_37 VPW:5 CT:8 0.00856333f
Cc_38 VPW:4 CT:9 0.00895007f
Cc_39 VPW:5 CT:10 0.00273836f
Cc_40 VPW:4 CT:11 0.00264508f
Cc_41 VPW:5 CT:12 0.00232769f
Cc_42 VPW:5 CT:13 0.00578412f
Cc_43 VPW:4 CT:14 0.00592376f
Cc_44 VPW:5 CT:15 0.00430708f
Cc_45 VPW:4 CT:16 0.00446625f
Cc_46 VPW:5 CT 0.00555731f
Cc_47 VPW:5 CT:18 0.0116669f
Cc_48 VPW:4 CT:19 0.0116328f
Cc_49 VPW:5 CB 0.000905083f
Cc_50 VPW:5 CB:7 0.00583098f
Cc_51 VPW:5 CB:8 0.00572792f
Cc_52 VPW:5 CB:9 0.000277571f
Cc_53 VPW:5 CB:11 0.00419493f
Cc_54 VPW:5 CB:12 0.00421725f
Cc_55 VPW:5 CB:13 0.00182212f
Cc_56 VPW:5 CB:15 0.00752592f
Cc_57 VPW:5 CB:16 0.0077993f
R12 VPW D0_noxref:pos 1e-05 $X=0.052 $Y=0.0 $X2=0.504 $Y2=0.36
R13 XI3|MMMN4:b VPW:2 1e-05 $X=0.084 $Y=0.12 $X2=-1.7935 $Y2=0.24
R14 D0_noxref:pos VPW:2 1e-05 $X=0.504 $Y=0.36 $X2=-1.7935 $Y2=0.24
R15 VPW:2 VPW:4 1e-05 $X=-1.7935 $Y=0.24 $X2=0.504 $Y2=2.246
R16 XI3|MMMN4:b XI3|MMMN4@2:b 0.01 $X=0.084 $Y=0.12 $X2=0.168 $Y2=0.12
R17 XI3|MMMN4:b XI3|MMMN1:b 0.01 $X=0.084 $Y=0.12 $X2=0.252 $Y2=0.12
R18 XI3|MMMN4:b XI3|MMMN2:b 0.01 $X=0.084 $Y=0.12 $X2=0.336 $Y2=0.12
R19 XI3|MMMN4:b XI3|MMMN3:b 0.01 $X=0.084 $Y=0.12 $X2=0.42 $Y2=0.12
R20 XI3|MMMN4:b XI2|MMMN4:b 0.01 $X=0.084 $Y=0.12 $X2=0.588 $Y2=0.12
R21 XI3|MMMN4:b XI2|MMMN4@2:b 0.01 $X=0.084 $Y=0.12 $X2=0.672 $Y2=0.12
R22 XI3|MMMN4:b XI2|MMMN1:b 0.01 $X=0.084 $Y=0.12 $X2=0.756 $Y2=0.12
R23 XI3|MMMN4:b XI2|MMMN2:b 0.01 $X=0.084 $Y=0.12 $X2=0.84 $Y2=0.12
R24 XI3|MMMN4:b XI2|MMMN3:b 0.01 $X=0.084 $Y=0.12 $X2=0.924 $Y2=0.12
R25 XI3|MMMN4:b VPW:5 1e-05 $X=0.084 $Y=0.12 $X2=2.8015 $Y2=0.24
R26 XI3|MMMN4:b D0_noxref:pos 0.01 $X=0.084 $Y=0.12 $X2=0.504 $Y2=0.36
R27 VPW:4 VPW:5 1e-05 $X=0.504 $Y=2.246 $X2=2.8015 $Y2=0.24
R28 D0_noxref:pos VPW:4 1e-05 $X=0.504 $Y=0.36 $X2=0.504 $Y2=2.246
R29 D0_noxref:pos VPW:5 1e-05 $X=0.504 $Y=0.36 $X2=2.8015 $Y2=0.24
R30 D0_noxref:pos VPW:16 1e-05 $X=0.504 $Y=0.36 $X2=-1.7935 $Y2=0.24
R31 D0_noxref:pos VPW:17 1e-05 $X=0.504 $Y=0.36 $X2=2.8015 $Y2=0.24
R32 D0_noxref:pos VPW 1e-05 $X=0.504 $Y=0.36 $X2=0.556 $Y2=0.0

*|NET XI3|N1 0.720022f
*|I (XI3|MMMP2:g XI3|MMMP2 g B 0.0 0.084 0.36)
*|I (XI3|MMMP3:g XI3|MMMP3 g B 0.0 0.168 0.36)
*|I (XI3|MMMN4:g XI3|MMMN4 g B 0.0 0.084 0.12)
*|I (XI3|MMMN4@2:g XI3|MMMN4@2 g B 0.0 0.168 0.12)
*|I (XI3|MMMN1:d XI3|MMMN1 d B 0.0 0.2639 0.12)
*|I (XI3|MMMN2:d XI3|MMMN2 d B 0.0 0.3241 0.12)
*|S (XI3|N1:5 0.294 0.0573)
*|S (XI3|N1:16 0.294 0.123)
*|S (XI3|N1:17 0.0695 0.24)
*|S (XI3|N1:19 0.126 0.112)
*|S (XI3|N1:20 0.126 0.2155)
*|S (XI3|N1:21 0.21 0.112)
*|S (XI3|N1:22 0.084 0.251)
*|S (XI3|N1:23 0.084 0.445)
*|S (XI3|N1:24 0.168 0.251)
*|S (XI3|N1:25 0.168 0.445)
*|S (XI3|N1:26 0.084 0.035)
*|S (XI3|N1:27 0.084 0.205)
*|S (XI3|N1:28 0.168 0.035)
*|S (XI3|N1:29 0.168 0.205)
*|S (XI3|N1:30 0.084 0.288)
*|S (XI3|N1:31 0.084 0.432)
*|S (XI3|N1:32 0.084 0.275)
*|S (XI3|N1:33 0.084 0.24)
*|S (XI3|N1:34 0.084 0.229)
*|S (XI3|N1:35 0.084 0.192)
*|S (XI3|N1:36 0.084 0.24)
*|S (XI3|N1:37 0.103 0.24)
*|S (XI3|N1:38 0.126 0.24)
*|S (XI3|N1:39 0.149 0.24)
*|S (XI3|N1:40 0.168 0.24)
*|S (XI3|N1:42 0.084 0.048)
*|S (XI3|N1:43 0.168 0.275)
*|S (XI3|N1:44 0.168 0.288)
*|S (XI3|N1:45 0.168 0.24)
*|S (XI3|N1:46 0.168 0.229)
*|S (XI3|N1:47 0.168 0.192)
*|S (XI3|N1:48 0.126 0.24)
*|S (XI3|N1:50 0.126 0.1695)
*|S (XI3|N1:51 0.168 0.432)
*|S (XI3|N1:52 0.168 0.048)
*|S (XI3|N1:53 0.2695 0.112)
*|S (XI3|N1:54 0.294 0.112)
*|S (XI3|N1:57 0.294 0.072)
*|S (XI3|N1:58 0.294 0.0818)
*|S (XI3|N1:59 0.294 0.123)
*|S (XI3|N1:60 0.294 0.1612)
*|S (XI3|N1:61 0.294 0.168)
Cg_58 XI3|MMMP2:g 0 0.000433122f
Cg_59 XI3|MMMP3:g 0 6.88845e-20
Cg_60 XI3|MMMN4:g 0 0.000517796f
Cg_61 XI3|MMMN4@2:g 0 0.000215534f
Cg_62 XI3|N1:17 0 0.000251662f
Cg_63 XI3|N1:19 0 0.000156321f
Cg_64 XI3|N1:20 0 0.0105099f
Cg_65 XI3|N1:21 0 0.00928268f
Cg_66 XI3|N1:22 0 7.20596e-20
Cg_67 XI3|N1:23 0 0.000138746f
Cg_68 XI3|N1:24 0 0.000114005f
Cg_69 XI3|N1:25 0 9.56384e-20
Cg_70 XI3|N1:26 0 7.97739e-20
Cg_71 XI3|N1:27 0 9.30607e-20
Cg_72 XI3|N1:28 0 2.23867e-25
Cg_73 XI3|N1:29 0 0.000127045f
Cc_74 XI3|MMMP2:g VSS:1 0.000524663f
Cc_75 XI3|MMMN4:g VSS:1 0.0226937f
Cc_76 XI3|N1:17 VSS:1 0.000270339f
Cc_77 XI3|N1:22 VSS:1 0.00103444f
Cc_78 XI3|N1:23 VSS:1 0.000100757f
Cc_79 XI3|N1:26 VSS:1 0.000127376f
Cc_80 XI3|N1:27 VSS:1 0.000182664f
Cc_81 XI3|MMMN4@2:g VSS:5 0.0147067f
Cc_82 XI3|N1:17 VSS:5 0.00653192f
Cc_83 XI3|MMMN4@2:g VSS:6 0.0188867f
Cc_84 XI3|N1:5 VSS:7 0.00314958f
Cc_85 XI3|N1:16 VSS:7 0.00136674f
Cc_86 XI3|N1:26 VSS:61 0.00228746f
Cc_87 XI3|N1:19 VSS:62 0.00458842f
Cc_88 XI3|N1:20 VSS:62 0.00263292f
Cc_89 XI3|N1:28 VSS:62 0.00412746f
Cc_90 XI3|N1:21 VSS:63 0.00217046f
Cc_91 XI3|N1:28 VSS:63 0.00538002f
Cc_92 XI3|N1:5 VSS:64 0.00320399f
Cc_93 XI3|N1:16 VSS:64 0.00606879f
Cc_94 XI3|N1:21 VSS:65 0.000248854f
Cc_95 XI3|MMMN4:g XI3|MMMN4:s 0.0392725f
Cc_96 XI3|N1:27 XI3|MMMN4:s 0.00250711f
Cc_97 XI3|MMMN4:g XI3|MMMN4:d 0.0370201f
Cc_98 XI3|MMMN4@2:g XI3|MMMN4:d 0.0370201f
Cc_99 XI3|N1:26 XI3|MMMN4:d 0.00561665f
Cc_100 XI3|N1:27 XI3|MMMN4:d 0.00367758f
Cc_101 XI3|N1:28 XI3|MMMN4:d 0.00511544f
Cc_102 XI3|MMMN4@2:g XI3|MMMN4@2:d 0.0342997f
Cc_103 XI3|N1:5 XI3|MMMN4@2:d 0.00236422f
Cc_104 XI3|N1:24 XI3|MMMN4@2:d 0.00065152f
Cc_105 XI3|N1:28 XI3|MMMN4@2:d 0.00519243f
Cc_106 XI3|N1:29 XI3|MMMN4@2:d 0.00325239f
Cc_107 XI3|N1:19 VSS 0.00321494f
Cc_108 XI3|N1:21 VSS 0.00929574f
Cc_109 XI3|MMMP2:g VDD:1 0.0163441f
Cc_110 XI3|MMMN4:g VDD:1 0.000562542f
Cc_111 XI3|N1:17 VDD:1 0.00357858f
Cc_112 XI3|N1:20 VDD:1 0.00107361f
Cc_113 XI3|N1:22 VDD:1 0.000144564f
Cc_114 XI3|N1:23 VDD:1 0.000101247f
Cc_115 XI3|N1:26 VDD:1 0.000127996f
Cc_116 XI3|N1:27 VDD:1 0.000780635f
Cc_117 XI3|MMMP3:g VDD:5 0.0118287f
Cc_118 XI3|N1:21 VDD:6 0.000275399f
Cc_119 XI3|N1:23 VDD:61 0.00180645f
Cc_120 XI3|N1:25 VDD:62 0.00166285f
Cc_121 XI3|N1:25 VDD:63 0.000122965f
Cc_122 XI3|MMMP2:g XI3|MMMP2:s 0.039493f
Cc_123 XI3|MMMN4:g XI3|MMMP2:s 0.00010492f
Cc_124 XI3|N1:22 XI3|MMMP2:s 0.00240754f
Cc_125 XI3|N1:23 XI3|MMMP2:s 0.00658718f
Cc_126 XI3|MMMP3:g XI3|MMMP3:s 0.0375014f
Cc_127 XI3|N1:24 XI3|MMMP3:s 0.00218251f
Cc_128 XI3|N1:25 XI3|MMMP3:s 0.0066096f
Cc_129 XI3|N1:29 XI3|MMMP3:s 0.000527346f
Cc_130 XI3|MMMN1:d XI3|MMMP1:d 0.000215289f
Cc_131 XI3|N1:23 VDD 0.000500382f
Cc_132 XI3|N1:25 VDD 0.00097169f
Cc_133 XI3|N1:22 VNW 0.000254768f
Cc_134 XI3|N1:23 VNW 0.000385208f
Cc_135 XI3|N1:24 VNW 0.00022044f
Cc_136 XI3|N1:25 VNW 0.000450621f
Cc_137 XI3|N1:27 VNW 0.000175826f
Cc_138 XI3|N1:29 VNW 0.000197837f
Cc_139 XI3|N1:23 VPW:4 0.00146708f
Cc_140 XI3|N1:25 VPW:4 0.00113381f
Cc_141 XI3|N1:17 VPW:5 0.000624137f
Cc_142 XI3|N1:19 VPW:5 0.000453645f
Cc_143 XI3|N1:20 VPW:5 0.00171681f
Cc_144 XI3|N1:21 VPW:5 0.00080911f
Cc_145 XI3|N1:22 VPW:5 0.000308747f
Cc_146 XI3|N1:24 VPW:5 0.000283785f
Cc_147 XI3|N1:26 VPW:5 0.00184178f
Cc_148 XI3|N1:27 VPW:5 0.000459173f
Cc_149 XI3|N1:28 VPW:5 0.00154485f
Cc_150 XI3|N1:29 VPW:5 0.000314391f
R33 XI3|MMMP2:g XI3|N1:30 180 $X=0.084 $Y=0.36 $X2=0.084 $Y2=0.288
R34 XI3|MMMP2:g XI3|N1:31 180 $X=0.084 $Y=0.36 $X2=0.084 $Y2=0.432
R35 XI3|MMMP3:g XI3|N1:44 180 $X=0.168 $Y=0.36 $X2=0.168 $Y2=0.288
R36 XI3|MMMP3:g XI3|N1:51 180 $X=0.168 $Y=0.36 $X2=0.168 $Y2=0.432
R37 XI3|MMMN4:g XI3|N1:35 150 $X=0.084 $Y=0.12 $X2=0.084 $Y2=0.192
R38 XI3|MMMN4:g XI3|N1:42 150 $X=0.084 $Y=0.12 $X2=0.084 $Y2=0.048
R39 XI3|MMMN4@2:g XI3|N1:47 150 $X=0.168 $Y=0.12 $X2=0.168 $Y2=0.192
R40 XI3|MMMN4@2:g XI3|N1:52 150 $X=0.168 $Y=0.12 $X2=0.168 $Y2=0.048
R41 XI3|N1:5 XI3|N1:57 3.45396 $X=0.294 $Y=0.0572 $X2=0.294 $Y2=0.072
R42 XI3|N1:16 XI3|N1:54 14 $X=0.294 $Y=0.123 $X2=0.294 $Y2=0.112
R43 XI3|N1:16 XI3|N1:59 10.9662 $X=0.294 $Y=0.123 $X2=0.294 $Y2=0.123
R44 XI3|N1:17 XI3|N1:36 1.38409 $X=0.0695 $Y=0.24 $X2=0.084 $Y2=0.24
R45 XI3|N1:19 XI3|N1:50 0.412907 $X=0.126 $Y=0.112 $X2=0.126 $Y2=0.1695
R46 XI3|N1:19 XI3|N1:21 0.645015 $X=0.126 $Y=0.112 $X2=0.21 $Y2=0.112
R47 XI3|N1:20 XI3|N1:48 0.154555 $X=0.126 $Y=0.2155 $X2=0.126 $Y2=0.24
R48 XI3|N1:20 XI3|N1:50 0.290184 $X=0.126 $Y=0.2155 $X2=0.126 $Y2=0.1695
R49 XI3|N1:21 XI3|N1:53 0.771196 $X=0.21 $Y=0.112 $X2=0.2695 $Y2=0.112
R50 XI3|N1:22 XI3|N1:32 71 $X=0.084 $Y=0.251 $X2=0.084 $Y2=0.275
R51 XI3|N1:22 XI3|N1:33 32.5417 $X=0.084 $Y=0.251 $X2=0.084 $Y2=0.24
R52 XI3|N1:22 XI3|N1:36 108.862 $X=0.084 $Y=0.251 $X2=0.084 $Y2=0.24
R53 XI3|N1:23 XI3|N1:31 38.4583 $X=0.084 $Y=0.445 $X2=0.084 $Y2=0.432
R54 XI3|N1:24 XI3|N1:43 71 $X=0.168 $Y=0.251 $X2=0.168 $Y2=0.275
R55 XI3|N1:24 XI3|N1:45 32.5417 $X=0.168 $Y=0.251 $X2=0.168 $Y2=0.24
R56 XI3|N1:24 XI3|N1:40 108.862 $X=0.168 $Y=0.251 $X2=0.168 $Y2=0.24
R57 XI3|N1:25 XI3|N1:51 38.4583 $X=0.168 $Y=0.445 $X2=0.168 $Y2=0.432
R58 XI3|N1:26 XI3|N1:42 36.8333 $X=0.084 $Y=0.035 $X2=0.084 $Y2=0.048
R59 XI3|N1:27 XI3|N1:34 68 $X=0.084 $Y=0.205 $X2=0.084 $Y2=0.229
R60 XI3|N1:27 XI3|N1:35 36.8333 $X=0.084 $Y=0.205 $X2=0.084 $Y2=0.192
R61 XI3|N1:28 XI3|N1:52 36.8333 $X=0.168 $Y=0.035 $X2=0.168 $Y2=0.048
R62 XI3|N1:29 XI3|N1:46 68 $X=0.168 $Y=0.205 $X2=0.168 $Y2=0.229
R63 XI3|N1:29 XI3|N1:47 36.8333 $X=0.168 $Y=0.205 $X2=0.168 $Y2=0.192
R64 XI3|N1:30 XI3|N1:32 38.4583 $X=0.084 $Y=0.288 $X2=0.084 $Y2=0.275
R65 XI3|N1:33 XI3|N1:34 31.1667 $X=0.084 $Y=0.24 $X2=0.084 $Y2=0.229
R66 XI3|N1:34 XI3|N1:36 108.862 $X=0.084 $Y=0.229 $X2=0.084 $Y2=0.24
R67 XI3|N1:36 XI3|N1:37 1.81364 $X=0.084 $Y=0.24 $X2=0.103 $Y2=0.24
R68 XI3|N1:37 XI3|N1:38 2.19545 $X=0.103 $Y=0.24 $X2=0.126 $Y2=0.24
R69 XI3|N1:38 XI3|N1:39 2.19545 $X=0.126 $Y=0.24 $X2=0.149 $Y2=0.24
R70 XI3|N1:38 XI3|N1:48 14 $X=0.126 $Y=0.24 $X2=0.126 $Y2=0.24
R71 XI3|N1:39 XI3|N1:40 1.81364 $X=0.149 $Y=0.24 $X2=0.168 $Y2=0.24
R72 XI3|N1:40 XI3|N1:46 108.862 $X=0.168 $Y=0.24 $X2=0.168 $Y2=0.229
R73 XI3|N1:43 XI3|N1:44 38.4583 $X=0.168 $Y=0.275 $X2=0.168 $Y2=0.288
R74 XI3|N1:45 XI3|N1:46 31.1667 $X=0.168 $Y=0.24 $X2=0.168 $Y2=0.229
R75 XI3|N1:53 XI3|N1:54 0.363697 $X=0.2695 $Y=0.112 $X2=0.294 $Y2=0.112
R76 XI3|N1:57 XI3|N1:58 2.28313 $X=0.294 $Y=0.072 $X2=0.294 $Y2=0.0817
R77 XI3|N1:57 XI3|MMMN2:d 220.5 $X=0.294 $Y=0.072 $X2=0.3241 $Y2=0.12
R78 XI3|N1:58 XI3|N1:59 9.65938 $X=0.294 $Y=0.0817 $X2=0.294 $Y2=0.123
R79 XI3|N1:59 XI3|N1:60 8.95688 $X=0.294 $Y=0.123 $X2=0.294 $Y2=0.1612
R80 XI3|N1:59 XI3|MMMN2:d 220.5 $X=0.294 $Y=0.123 $X2=0.3241 $Y2=0.12
R81 XI3|N1:60 XI3|N1:61 1.58063 $X=0.294 $Y=0.1612 $X2=0.294 $Y2=0.168
R82 XI3|N1:61 XI3|MMMN2:d 220.5 $X=0.294 $Y=0.168 $X2=0.3241 $Y2=0.12
R83 XI3|N1:30 XI3|N1:31 -540 $X=0.084 $Y=0.288 $X2=0.084 $Y2=0.432
R84 XI3|N1:44 XI3|N1:51 -540 $X=0.168 $Y=0.288 $X2=0.168 $Y2=0.432
R85 XI3|N1:35 XI3|N1:42 -450 $X=0.084 $Y=0.192 $X2=0.084 $Y2=0.048
R86 XI3|N1:47 XI3|N1:52 -450 $X=0.168 $Y=0.192 $X2=0.168 $Y2=0.048
R87 XI3|MMMN2:d XI3|MMMN1:d 1e-05 $X=0.3241 $Y=0.12 $X2=0.273 $Y2=0.12

*|NET VSS 1.29976f
*|P (VSS B 0.0 0.052 0.0)
*|I (XI3|MMMN4:s XI3|MMMN4 s B 0.0 0.0721 0.12)
*|I (XI3|MMMN4:d XI3|MMMN4 d B 0.0 0.0959 0.12)
*|I (XI3|MMMN4@2:d XI3|MMMN4@2 d B 0.0 0.1799 0.12)
*|I (XI3|MMMN2:s XI3|MMMN2 s B 0.0 0.3478 0.12)
*|I (XI3|MMMN3:d XI3|MMMN3 d B 0.0 0.4319 0.12)
*|I (XI2|MMMN4:s XI2|MMMN4 s B 0.0 0.5762 0.12)
*|I (XI2|MMMN4:d XI2|MMMN4 d B 0.0 0.5998 0.12)
*|I (XI2|MMMN4@2:d XI2|MMMN4@2 d B 0.0 0.6839 0.12)
*|I (XI2|MMMN2:s XI2|MMMN2 s B 0.0 0.8519 0.12)
*|I (XI2|MMMN3:d XI2|MMMN3 d B 0.0 0.9358 0.12)
*|I (XI3|MMMN4@2:s XI3|MMMN4@2 s B 0.0 0.1561 0.12)
*|I (XI3|MMMN1:s XI3|MMMN1 s B 0.0 0.2401 0.12)
*|I (XI3|MMMN3:s XI3|MMMN3 s B 0.0 0.4082 0.12)
*|I (XI2|MMMN4@2:s XI2|MMMN4@2 s B 0.0 0.6602 0.12)
*|I (XI2|MMMN1:s XI2|MMMN1 s B 0.0 0.7442 0.12)
*|I (XI2|MMMN3:s XI2|MMMN3 s B 0.0 0.9121 0.12)
*|S (VSS:1 0.042 0.0465)
*|S (VSS:2 0.462 0.0465)
*|S (VSS:3 0.546 0.0465)
*|S (VSS:4 0.966 0.0465)
*|S (VSS:5 0.126 0.073)
*|S (VSS:6 0.21 0.073)
*|S (VSS:7 0.378 0.073)
*|S (VSS:8 0.63 0.073)
*|S (VSS:9 0.714 0.073)
*|S (VSS:10 0.882 0.073)
*|S (VSS:61 0.042 -0.006)
*|S (VSS:62 0.126 -0.006)
*|S (VSS:63 0.21 -0.006)
*|S (VSS:64 0.378 -0.006)
*|S (VSS:65 0.462 -0.006)
*|S (VSS:66 0.546 -0.006)
*|S (VSS:67 0.63 -0.006)
*|S (VSS:68 0.714 -0.006)
*|S (VSS:69 0.882 -0.006)
*|S (VSS:70 0.966 -0.006)
*|S (VSS:88 0.126 0.1062)
*|S (VSS:89 0.126 0.12)
*|S (VSS:90 0.126 0.144)
*|S (VSS:91 0.126 0.168)
*|S (VSS:93 0.126 0.016)
*|S (VSS:94 0.126 0.04)
*|S (VSS:95 0.126 0.073)
*|S (VSS:97 0.085 0.0)
*|S (VSS:98 0.0675 0.0)
*|S (VSS:99 0.1015 0.0)
*|S (VSS:100 0.126 0.0)
*|S (VSS:101 0.168 0.0)
*|S (VSS:102 0.21 0.0)
*|S (VSS:103 0.2845 0.0)
*|S (VSS:104 0.3525 0.0)
*|S (VSS:105 0.378 0.0)
*|S (VSS:106 0.42 0.0)
*|S (VSS:107 0.462 0.0)
*|S (VSS:108 0.504 0.0)
*|S (VSS:110 0.5715 0.0)
*|S (VSS:111 0.589 0.0)
*|S (VSS:112 0.6055 0.0)
*|S (VSS:113 0.63 0.0)
*|S (VSS:114 0.672 0.0)
*|S (VSS:115 0.714 0.0)
*|S (VSS:116 0.7885 0.0)
*|S (VSS:117 0.8565 0.0)
*|S (VSS:118 0.882 0.0)
*|S (VSS:119 0.924 0.0)
*|S (VSS:120 0.966 0.0)
*|S (VSS:122 0.042 0.016)
*|S (VSS:123 0.042 0.04)
*|S (VSS:124 0.042 0.073)
*|S (VSS:125 0.21 0.016)
*|S (VSS:126 0.21 0.04)
*|S (VSS:127 0.21 0.073)
*|S (VSS:128 0.378 0.016)
*|S (VSS:129 0.378 0.04)
*|S (VSS:130 0.378 0.073)
*|S (VSS:131 0.462 0.016)
*|S (VSS:132 0.462 0.04)
*|S (VSS:133 0.462 0.073)
*|S (VSS:134 0.546 0.016)
*|S (VSS:135 0.546 0.04)
*|S (VSS:136 0.546 0.073)
*|S (VSS:137 0.63 0.016)
*|S (VSS:138 0.63 0.04)
*|S (VSS:139 0.63 0.073)
*|S (VSS:140 0.714 0.016)
*|S (VSS:141 0.714 0.04)
*|S (VSS:142 0.714 0.073)
*|S (VSS:143 0.882 0.016)
*|S (VSS:144 0.882 0.04)
*|S (VSS:145 0.882 0.073)
*|S (VSS:146 0.966 0.016)
*|S (VSS:147 0.966 0.04)
*|S (VSS:148 0.966 0.073)
*|S (VSS:149 0.042 0.073)
*|S (VSS:150 0.042 0.1062)
*|S (VSS:151 0.042 0.12)
*|S (VSS:152 0.042 0.144)
*|S (VSS:153 0.042 0.168)
*|S (VSS:155 0.21 0.1062)
*|S (VSS:156 0.21 0.12)
*|S (VSS:157 0.21 0.144)
*|S (VSS:158 0.21 0.168)
*|S (VSS:160 0.378 0.1062)
*|S (VSS:161 0.378 0.12)
*|S (VSS:162 0.378 0.144)
*|S (VSS:163 0.378 0.168)
*|S (VSS:165 0.462 0.073)
*|S (VSS:166 0.462 0.1062)
*|S (VSS:167 0.462 0.12)
*|S (VSS:168 0.462 0.144)
*|S (VSS:169 0.462 0.168)
*|S (VSS:171 0.546 0.073)
*|S (VSS:172 0.546 0.1062)
*|S (VSS:173 0.546 0.12)
*|S (VSS:174 0.546 0.144)
*|S (VSS:175 0.546 0.168)
*|S (VSS:177 0.63 0.1062)
*|S (VSS:178 0.63 0.12)
*|S (VSS:179 0.63 0.144)
*|S (VSS:180 0.63 0.168)
*|S (VSS:182 0.714 0.1062)
*|S (VSS:183 0.714 0.12)
*|S (VSS:184 0.714 0.144)
*|S (VSS:185 0.714 0.168)
*|S (VSS:187 0.882 0.1062)
*|S (VSS:188 0.882 0.12)
*|S (VSS:189 0.882 0.144)
*|S (VSS:190 0.882 0.168)
*|S (VSS:192 0.966 0.073)
*|S (VSS:193 0.966 0.1062)
*|S (VSS:194 0.966 0.12)
*|S (VSS:195 0.966 0.144)
*|S (VSS:196 0.966 0.168)
*|S (VSS:221 0.546 0.12)
Cg_151 VSS:1 0 0.000446178f
Cg_152 VSS:3 0 0.0014327f
Cg_153 VSS:61 0 0.000354773f
Cg_154 XI3|MMMN4:s 0 0.00113943f
Cg_155 XI3|MMMN4:d 0 0.000577679f
Cg_156 XI3|MMMN4@2:d 0 0.00056001f
Cg_157 XI2|MMMN4:s 0 0.00102012f
Cg_158 XI2|MMMN4:d 0 0.000372126f
Cg_159 VSS 0 0.0776674f
R88 VSS:1 VSS:149 4.96433 $X=0.042 $Y=0.0465 $X2=0.042 $Y2=0.073
R89 VSS:2 VSS:165 4.96433 $X=0.462 $Y=0.0465 $X2=0.462 $Y2=0.073
R90 VSS:3 VSS:171 4.96433 $X=0.546 $Y=0.0465 $X2=0.546 $Y2=0.073
R91 VSS:4 VSS:192 4.96433 $X=0.966 $Y=0.0465 $X2=0.966 $Y2=0.073
R92 VSS:5 VSS:88 7.78604 $X=0.126 $Y=0.073 $X2=0.126 $Y2=0.1062
R93 VSS:5 XI3|MMMN4@2:s 220.5 $X=0.126 $Y=0.073 $X2=0.1561 $Y2=0.12
R94 VSS:5 VSS:95 16.23 $X=0.126 $Y=0.073 $X2=0.126 $Y2=0.073
R95 VSS:6 VSS:155 7.78604 $X=0.21 $Y=0.073 $X2=0.21 $Y2=0.1062
R96 VSS:6 VSS:127 16.23 $X=0.21 $Y=0.073 $X2=0.21 $Y2=0.073
R97 VSS:6 XI3|MMMN1:s 220.5 $X=0.21 $Y=0.073 $X2=0.2401 $Y2=0.12
R98 VSS:7 VSS:160 7.78604 $X=0.378 $Y=0.073 $X2=0.378 $Y2=0.1062
R99 VSS:7 VSS:130 16.23 $X=0.378 $Y=0.073 $X2=0.378 $Y2=0.073
R100 VSS:7 XI3|MMMN3:s 220.5 $X=0.378 $Y=0.073 $X2=0.4081 $Y2=0.12
R101 VSS:8 VSS:177 7.78604 $X=0.63 $Y=0.073 $X2=0.63 $Y2=0.1062
R102 VSS:8 VSS:139 16.23 $X=0.63 $Y=0.073 $X2=0.63 $Y2=0.073
R103 VSS:8 XI2|MMMN4@2:s 220.5 $X=0.63 $Y=0.073 $X2=0.6601 $Y2=0.12
R104 VSS:9 VSS:182 7.78604 $X=0.714 $Y=0.073 $X2=0.714 $Y2=0.1062
R105 VSS:9 VSS:142 16.23 $X=0.714 $Y=0.073 $X2=0.714 $Y2=0.073
R106 VSS:9 XI2|MMMN1:s 220.5 $X=0.714 $Y=0.073 $X2=0.7441 $Y2=0.12
R107 VSS:10 VSS:187 7.78604 $X=0.882 $Y=0.073 $X2=0.882 $Y2=0.1062
R108 VSS:10 VSS:145 16.23 $X=0.882 $Y=0.073 $X2=0.882 $Y2=0.073
R109 VSS:10 XI2|MMMN3:s 220.5 $X=0.882 $Y=0.073 $X2=0.9121 $Y2=0.12
R110 VSS:61 VSS:122 3.74 $X=0.042 $Y=-0.006 $X2=0.042 $Y2=0.016
R111 VSS:62 VSS:93 3.74 $X=0.126 $Y=-0.006 $X2=0.126 $Y2=0.016
R112 VSS:63 VSS:125 3.74 $X=0.21 $Y=-0.006 $X2=0.21 $Y2=0.016
R113 VSS:64 VSS:128 3.74 $X=0.378 $Y=-0.006 $X2=0.378 $Y2=0.016
R114 VSS:65 VSS:131 3.74 $X=0.462 $Y=-0.006 $X2=0.462 $Y2=0.016
R115 VSS:66 VSS:134 3.74 $X=0.546 $Y=-0.006 $X2=0.546 $Y2=0.016
R116 VSS:67 VSS:137 3.74 $X=0.63 $Y=-0.006 $X2=0.63 $Y2=0.016
R117 VSS:68 VSS:140 3.74 $X=0.714 $Y=-0.006 $X2=0.714 $Y2=0.016
R118 VSS:69 VSS:143 3.74 $X=0.882 $Y=-0.006 $X2=0.882 $Y2=0.016
R119 VSS:70 VSS:146 3.74 $X=0.966 $Y=-0.006 $X2=0.966 $Y2=0.016
R120 VSS VSS:98 0.165554 $X=0.052 $Y=0.0 $X2=0.0675 $Y2=0.0
R121 VSS VSS:122 14 $X=0.052 $Y=0.0 $X2=0.042 $Y2=0.016
R122 XI3|MMMN4@2:s VSS:89 220.5 $X=0.1561 $Y=0.12 $X2=0.126 $Y2=0.12
R123 XI3|MMMN4@2:s VSS:91 220.5 $X=0.1561 $Y=0.12 $X2=0.126 $Y2=0.168
R124 VSS:88 VSS:89 3.21979 $X=0.126 $Y=0.1062 $X2=0.126 $Y2=0.12
R125 VSS:89 VSS:90 5.62 $X=0.126 $Y=0.12 $X2=0.126 $Y2=0.144
R126 VSS:90 VSS:91 5.62 $X=0.126 $Y=0.144 $X2=0.126 $Y2=0.168
R127 VSS:93 VSS:94 4.08 $X=0.126 $Y=0.016 $X2=0.126 $Y2=0.04
R128 VSS:93 VSS:100 14 $X=0.126 $Y=0.016 $X2=0.126 $Y2=0.0
R129 VSS:94 VSS:95 5.61 $X=0.126 $Y=0.04 $X2=0.126 $Y2=0.073
R130 VSS:97 VSS:98 0.113615 $X=0.085 $Y=0.0 $X2=0.0675 $Y2=0.0
R131 VSS:97 VSS:99 0.11578 $X=0.085 $Y=0.0 $X2=0.1015 $Y2=0.0
R132 VSS:99 VSS:100 0.184013 $X=0.1015 $Y=0.0 $X2=0.126 $Y2=0.0
R133 VSS:100 VSS:101 0.315452 $X=0.126 $Y=0.0 $X2=0.168 $Y2=0.0
R134 VSS:101 VSS:102 0.315452 $X=0.168 $Y=0.0 $X2=0.21 $Y2=0.0
R135 VSS:102 VSS:103 0.559551 $X=0.21 $Y=0.0 $X2=0.2845 $Y2=0.0
R136 VSS:102 VSS:125 14 $X=0.21 $Y=0.0 $X2=0.21 $Y2=0.016
R137 VSS:103 VSS:104 0.501056 $X=0.2845 $Y=0.0 $X2=0.3525 $Y2=0.0
R138 VSS:104 VSS:105 0.165554 $X=0.3525 $Y=0.0 $X2=0.378 $Y2=0.0
R139 VSS:105 VSS:106 0.272677 $X=0.378 $Y=0.0 $X2=0.42 $Y2=0.0
R140 VSS:105 VSS:128 14 $X=0.378 $Y=0.0 $X2=0.378 $Y2=0.016
R141 VSS:106 VSS:107 0.272677 $X=0.42 $Y=0.0 $X2=0.462 $Y2=0.0
R142 VSS:107 VSS:108 0.272677 $X=0.462 $Y=0.0 $X2=0.504 $Y2=0.0
R143 VSS:107 VSS:131 14 $X=0.462 $Y=0.0 $X2=0.462 $Y2=0.016
R144 VSS VSS:108 0.272677 $X=0.556 $Y=0.0 $X2=0.504 $Y2=0.0
R145 VSS VSS:110 0.165554 $X=0.556 $Y=0.0 $X2=0.5715 $Y2=0.0
R146 VSS VSS:134 14 $X=0.556 $Y=0.0 $X2=0.546 $Y2=0.016
R147 VSS:110 VSS:111 0.113615 $X=0.5715 $Y=0.0 $X2=0.589 $Y2=0.0
R148 VSS:111 VSS:112 0.11578 $X=0.589 $Y=0.0 $X2=0.6055 $Y2=0.0
R149 VSS:112 VSS:113 0.184013 $X=0.6055 $Y=0.0 $X2=0.63 $Y2=0.0
R150 VSS:113 VSS:114 0.315452 $X=0.63 $Y=0.0 $X2=0.672 $Y2=0.0
R151 VSS:113 VSS:137 14 $X=0.63 $Y=0.0 $X2=0.63 $Y2=0.016
R152 VSS:114 VSS:115 0.315452 $X=0.672 $Y=0.0 $X2=0.714 $Y2=0.0
R153 VSS:115 VSS:116 0.559551 $X=0.714 $Y=0.0 $X2=0.7885 $Y2=0.0
R154 VSS:115 VSS:140 14 $X=0.714 $Y=0.0 $X2=0.714 $Y2=0.016
R155 VSS:116 VSS:117 0.501056 $X=0.7885 $Y=0.0 $X2=0.8565 $Y2=0.0
R156 VSS:117 VSS:118 0.165554 $X=0.8565 $Y=0.0 $X2=0.882 $Y2=0.0
R157 VSS:118 VSS:119 0.272677 $X=0.882 $Y=0.0 $X2=0.924 $Y2=0.0
R158 VSS:118 VSS:143 14 $X=0.882 $Y=0.0 $X2=0.882 $Y2=0.016
R159 VSS:119 VSS:120 0.272677 $X=0.924 $Y=0.0 $X2=0.966 $Y2=0.0
R160 VSS:120 VSS:146 14 $X=0.966 $Y=0.0 $X2=0.966 $Y2=0.016
R161 VSS:122 VSS:123 4.08 $X=0.042 $Y=0.016 $X2=0.042 $Y2=0.04
R162 VSS:123 VSS:124 5.61 $X=0.042 $Y=0.04 $X2=0.042 $Y2=0.073
R163 VSS:124 VSS:149 16.23 $X=0.042 $Y=0.073 $X2=0.042 $Y2=0.073
R164 VSS:125 VSS:126 4.08 $X=0.21 $Y=0.016 $X2=0.21 $Y2=0.04
R165 VSS:126 VSS:127 5.61 $X=0.21 $Y=0.04 $X2=0.21 $Y2=0.073
R166 VSS:128 VSS:129 4.08 $X=0.378 $Y=0.016 $X2=0.378 $Y2=0.04
R167 VSS:129 VSS:130 5.61 $X=0.378 $Y=0.04 $X2=0.378 $Y2=0.073
R168 VSS:131 VSS:132 4.08 $X=0.462 $Y=0.016 $X2=0.462 $Y2=0.04
R169 VSS:132 VSS:133 5.61 $X=0.462 $Y=0.04 $X2=0.462 $Y2=0.073
R170 VSS:133 VSS:165 16.23 $X=0.462 $Y=0.073 $X2=0.462 $Y2=0.073
R171 VSS:134 VSS:135 4.08 $X=0.546 $Y=0.016 $X2=0.546 $Y2=0.04
R172 VSS:135 VSS:136 5.61 $X=0.546 $Y=0.04 $X2=0.546 $Y2=0.073
R173 VSS:136 VSS:171 16.23 $X=0.546 $Y=0.073 $X2=0.546 $Y2=0.073
R174 VSS:137 VSS:138 4.08 $X=0.63 $Y=0.016 $X2=0.63 $Y2=0.04
R175 VSS:138 VSS:139 5.61 $X=0.63 $Y=0.04 $X2=0.63 $Y2=0.073
R176 VSS:140 VSS:141 4.08 $X=0.714 $Y=0.016 $X2=0.714 $Y2=0.04
R177 VSS:141 VSS:142 5.61 $X=0.714 $Y=0.04 $X2=0.714 $Y2=0.073
R178 VSS:143 VSS:144 4.08 $X=0.882 $Y=0.016 $X2=0.882 $Y2=0.04
R179 VSS:144 VSS:145 5.61 $X=0.882 $Y=0.04 $X2=0.882 $Y2=0.073
R180 VSS:146 VSS:147 4.08 $X=0.966 $Y=0.016 $X2=0.966 $Y2=0.04
R181 VSS:147 VSS:148 5.61 $X=0.966 $Y=0.04 $X2=0.966 $Y2=0.073
R182 VSS:148 VSS:192 16.23 $X=0.966 $Y=0.073 $X2=0.966 $Y2=0.073
R183 VSS:149 VSS:150 6.22883 $X=0.042 $Y=0.073 $X2=0.042 $Y2=0.1062
R184 XI3|MMMN4:s VSS:149 220.5 $X=0.0215 $Y=0.12 $X2=0.042 $Y2=0.073
R185 VSS:150 VSS:151 2.57583 $X=0.042 $Y=0.1062 $X2=0.042 $Y2=0.12
R186 VSS:151 VSS:152 4.496 $X=0.042 $Y=0.12 $X2=0.042 $Y2=0.144
R187 XI3|MMMN4:s VSS:151 220.5 $X=0.0215 $Y=0.12 $X2=0.042 $Y2=0.12
R188 VSS:152 VSS:153 4.496 $X=0.042 $Y=0.144 $X2=0.042 $Y2=0.168
R189 XI3|MMMN4:s VSS:153 220.5 $X=0.0215 $Y=0.12 $X2=0.042 $Y2=0.168
R190 VSS:155 VSS:156 3.21979 $X=0.21 $Y=0.1062 $X2=0.21 $Y2=0.12
R191 VSS:156 VSS:157 5.62 $X=0.21 $Y=0.12 $X2=0.21 $Y2=0.144
R192 VSS:156 XI3|MMMN1:s 220.5 $X=0.21 $Y=0.12 $X2=0.2401 $Y2=0.12
R193 VSS:157 VSS:158 5.62 $X=0.21 $Y=0.144 $X2=0.21 $Y2=0.168
R194 VSS:158 XI3|MMMN1:s 220.5 $X=0.21 $Y=0.168 $X2=0.2401 $Y2=0.12
R195 VSS:160 VSS:161 3.21979 $X=0.378 $Y=0.1062 $X2=0.378 $Y2=0.12
R196 VSS:161 VSS:162 5.62 $X=0.378 $Y=0.12 $X2=0.378 $Y2=0.144
R197 VSS:161 XI3|MMMN3:s 220.5 $X=0.378 $Y=0.12 $X2=0.4081 $Y2=0.12
R198 VSS:162 VSS:163 5.62 $X=0.378 $Y=0.144 $X2=0.378 $Y2=0.168
R199 VSS:163 XI3|MMMN3:s 220.5 $X=0.378 $Y=0.168 $X2=0.4081 $Y2=0.12
R200 VSS:165 VSS:166 6.22883 $X=0.462 $Y=0.073 $X2=0.462 $Y2=0.1062
R201 XI3|MMMN3:d VSS:165 220.5 $X=0.441 $Y=0.12 $X2=0.462 $Y2=0.073
R202 VSS:166 VSS:167 2.57583 $X=0.462 $Y=0.1062 $X2=0.462 $Y2=0.12
R203 VSS:167 VSS:168 4.496 $X=0.462 $Y=0.12 $X2=0.462 $Y2=0.144
R204 XI3|MMMN3:d VSS:167 220.5 $X=0.441 $Y=0.12 $X2=0.462 $Y2=0.12
R205 VSS:168 VSS:169 4.496 $X=0.462 $Y=0.144 $X2=0.462 $Y2=0.168
R206 XI3|MMMN3:d VSS:169 220.5 $X=0.441 $Y=0.12 $X2=0.462 $Y2=0.168
R207 VSS:171 VSS:172 6.22883 $X=0.546 $Y=0.073 $X2=0.546 $Y2=0.1062
R208 VSS:171 VSS:221 220.5 $X=0.546 $Y=0.073 $X2=0.546 $Y2=0.12
R209 VSS:172 VSS:173 2.57583 $X=0.546 $Y=0.1062 $X2=0.546 $Y2=0.12
R210 VSS:173 VSS:174 4.496 $X=0.546 $Y=0.12 $X2=0.546 $Y2=0.144
R211 VSS:173 VSS:221 220.5 $X=0.546 $Y=0.12 $X2=0.546 $Y2=0.12
R212 VSS:174 VSS:175 4.496 $X=0.546 $Y=0.144 $X2=0.546 $Y2=0.168
R213 VSS:175 VSS:221 220.5 $X=0.546 $Y=0.168 $X2=0.546 $Y2=0.12
R214 VSS:177 VSS:178 3.21979 $X=0.63 $Y=0.1062 $X2=0.63 $Y2=0.12
R215 VSS:178 VSS:179 5.62 $X=0.63 $Y=0.12 $X2=0.63 $Y2=0.144
R216 VSS:178 XI2|MMMN4@2:s 220.5 $X=0.63 $Y=0.12 $X2=0.6601 $Y2=0.12
R217 VSS:179 VSS:180 5.62 $X=0.63 $Y=0.144 $X2=0.63 $Y2=0.168
R218 VSS:180 XI2|MMMN4@2:s 220.5 $X=0.63 $Y=0.168 $X2=0.6601 $Y2=0.12
R219 VSS:182 VSS:183 3.21979 $X=0.714 $Y=0.1062 $X2=0.714 $Y2=0.12
R220 VSS:183 VSS:184 5.62 $X=0.714 $Y=0.12 $X2=0.714 $Y2=0.144
R221 VSS:183 XI2|MMMN1:s 220.5 $X=0.714 $Y=0.12 $X2=0.7441 $Y2=0.12
R222 VSS:184 VSS:185 5.62 $X=0.714 $Y=0.144 $X2=0.714 $Y2=0.168
R223 VSS:185 XI2|MMMN1:s 220.5 $X=0.714 $Y=0.168 $X2=0.7441 $Y2=0.12
R224 VSS:187 VSS:188 3.21979 $X=0.882 $Y=0.1062 $X2=0.882 $Y2=0.12
R225 VSS:188 VSS:189 5.62 $X=0.882 $Y=0.12 $X2=0.882 $Y2=0.144
R226 VSS:188 XI2|MMMN3:s 220.5 $X=0.882 $Y=0.12 $X2=0.9121 $Y2=0.12
R227 VSS:189 VSS:190 5.62 $X=0.882 $Y=0.144 $X2=0.882 $Y2=0.168
R228 VSS:190 XI2|MMMN3:s 220.5 $X=0.882 $Y=0.168 $X2=0.9121 $Y2=0.12
R229 VSS:192 VSS:193 6.22883 $X=0.966 $Y=0.073 $X2=0.966 $Y2=0.1062
R230 XI2|MMMN3:d VSS:192 220.5 $X=0.945 $Y=0.12 $X2=0.966 $Y2=0.073
R231 VSS:193 VSS:194 2.57583 $X=0.966 $Y=0.1062 $X2=0.966 $Y2=0.12
R232 VSS:194 VSS:195 4.496 $X=0.966 $Y=0.12 $X2=0.966 $Y2=0.144
R233 XI2|MMMN3:d VSS:194 220.5 $X=0.945 $Y=0.12 $X2=0.966 $Y2=0.12
R234 VSS:195 VSS:196 4.496 $X=0.966 $Y=0.144 $X2=0.966 $Y2=0.168
R235 XI2|MMMN3:d VSS:196 220.5 $X=0.945 $Y=0.12 $X2=0.966 $Y2=0.168
R236 XI2|MMMN4:s VSS:221 1e-05 $X=0.5761 $Y=0.12 $X2=0.546 $Y2=0.12
R237 XI3|MMMN4@2:s XI3|MMMN4:d 1e-05 $X=0.1561 $Y=0.12 $X2=0.105 $Y2=0.12
R238 XI3|MMMN1:s XI3|MMMN4@2:d 1e-05 $X=0.2401 $Y=0.12 $X2=0.189 $Y2=0.12
R239 XI3|MMMN3:s XI3|MMMN2:s 1e-05 $X=0.4081 $Y=0.12 $X2=0.357 $Y2=0.12
R240 XI2|MMMN4@2:s XI2|MMMN4:d 1e-05 $X=0.6601 $Y=0.12 $X2=0.609 $Y2=0.12
R241 XI2|MMMN1:s XI2|MMMN4@2:d 1e-05 $X=0.7441 $Y=0.12 $X2=0.693 $Y2=0.12
R242 XI2|MMMN3:s XI2|MMMN2:s 1e-05 $X=0.9121 $Y=0.12 $X2=0.861 $Y2=0.12

*|NET CT 0.564774f
*|P (CT B 0.0 0.154 0.239)
*|S (CT:5 0.154 0.111)
*|S (CT:6 0.154 0.368)
*|S (CT:7 0.154 0.175)
*|S (CT:8 0.236 0.111)
*|S (CT:9 0.236 0.368)
*|S (CT:10 0.154 0.111)
*|S (CT:11 0.154 0.368)
*|S (CT:12 0.154 0.175)
*|S (CT:13 0.236 0.111)
*|S (CT:14 0.236 0.368)
*|S (CT:15 0.154 0.111)
*|S (CT:16 0.154 0.368)
*|S (CT:18 0.236 0.111)
*|S (CT:19 0.236 0.368)
*|S (CT:20 0.154 0.2075)
*|S (CT:21 0.154 0.2233)
*|S (CT:22 0.154 0.175)
*|S (CT:23 0.154 0.2552)
*|S (CT:24 0.154 0.2715)
*|S (CT:25 0.154 0.3035)
*|S (CT:26 0.154 0.3355)
*|S (CT:27 0.154 0.2075)
*|S (CT:28 0.154 0.2395)
*|S (CT:29 0.154 0.2715)
*|S (CT:30 0.154 0.3035)
*|S (CT:31 0.154 0.3355)
*|S (CT:33 0.154 0.2075)
*|S (CT:34 0.154 0.2395)
*|S (CT:35 0.154 0.2715)
*|S (CT:36 0.154 0.3035)
*|S (CT:37 0.154 0.3355)
Cg_160 CT:5 0 0.00654579f
Cg_161 CT:6 0 0.00618596f
Cg_162 CT:7 0 0.00471712f
Cg_163 CT:8 0 0.0161563f
Cg_164 CT:9 0 0.0149825f
Cg_165 CT:10 0 0.0095857f
Cg_166 CT:11 0 0.00967898f
Cg_167 CT:12 0 0.0053702f
Cg_168 CT:13 0 0.0151603f
Cg_169 CT:14 0 0.0132931f
Cg_170 CT:15 0 0.00467372f
Cg_171 CT:16 0 0.00451456f
Cg_172 CT 0 0.00129557f
Cg_173 CT:18 0 0.0140158f
Cg_174 CT:19 0 0.0132387f
R243 CT:5 CT:7 0.0494495 $X=0.154 $Y=0.111 $X2=0.154 $Y2=0.175
R244 CT:5 CT:8 0.11494 $X=0.154 $Y=0.111 $X2=0.236 $Y2=0.111
R245 CT:6 CT:37 0.000772648 $X=0.154 $Y=0.368 $X2=0.154 $Y2=0.3355
R246 CT:6 CT:9 0.11494 $X=0.154 $Y=0.368 $X2=0.236 $Y2=0.368
R247 CT:7 CT:33 0.0502222 $X=0.154 $Y=0.175 $X2=0.154 $Y2=0.2075